<routes xmlns:ns0="http://www.w3.org/30001/XMLSchema-instance" ns0:noNamespaceSchemaLocation="http://sumo.dlr.de/xsd/routes_file.xsd">
    
    <flow id="E0_f_0" type="DEFAULT_PEDTYPE" begin="0.00" color="magenta" from="E0" to="E2" vehsPerHour="125.0"/>
    <flow id="E0_f_1" type="DEFAULT_BIKETYPE" begin="0.00" color="blue" from="E0" to="E2" vehsPerHour="95.0"/>
    <flow id="E0_f_2" type="DEFAULT_VEHTYPE" begin="0.00" color="yellow" from="E0" to="E2" vehsPerHour="968.0"/>

    <!-- <flow id="f_18" type="DEFAULT_PEDTYPE" begin="0.00" color="magenta" from="-E2" to="-E0" via="-E2 -E0"  vehsPerHour="15" />
    <flow id="f_19" type="DEFAULT_BIKETYPE" begin="0.00" color="blue" from="-E2" to="-E0" via="-E2 -E0"  vehsPerHour="22" />
    <flow id="f_20" type="DEFAULT_VEHTYPE" begin="0.00" color="yellow" from="-E2" to="-E0" via="-E2 -E0"  vehsPerHour="1250" />

    <flow id="f_27" type="DEFAULT_PEDTYPE" begin="0.00" color="magenta" from="-E1" to="E3" via="-E1 E3"  vehsPerHour="15" />
    <flow id="f_28" type="DEFAULT_BIKETYPE" begin="0.00" color="blue" from="-E1" to="E3" via="-E1 E3"  vehsPerHour="22" />
    <flow id="f_29" type="DEFAULT_VEHTYPE" begin="0.00" color="yellow" from="-E1" to="E3" via="-E1 E3"  vehsPerHour="1250" />

     <flow id="f_9" type="DEFAULT_PEDTYPE" begin="0.00" color="magenta" from="-E3" to="E1" via="-E3 E1"  vehsPerHour="15" />
    <flow id="f_10" type="DEFAULT_BIKETYPE" begin="0.00" color="blue" from="-E3" to="E1" via="-E3 E1"  vehsPerHour="22" />
    <flow id="f_11" type="DEFAULT_VEHTYPE" begin="0.00" color="yellow" from="-E3" to="E1" via="-E3 E1"  vehsPerHour="1250" /> -->
    
    
    <!-- <flow id="f_3" type="DEFAULT_PEDTYPE" begin="0.00" color="magenta" from="E0" to="E1" via="E0 E1" end="3600.00" vehsPerHour="15" />
    <flow id="f_4" type="DEFAULT_BIKETYPE" begin="0.00" color="blue" from="E0" to="E1" via="E0 E1" end="3600.00" vehsPerHour="22" />
    <flow id="f_5" type="DEFAULT_VEHTYPE" begin="0.00" color="yellow" from="E0" to="E1" via="E0 E1" end="3600.00" vehsPerHour="1250" />

    <flow id="f_6" type="DEFAULT_PEDTYPE" begin="0.00" color="magenta" from="E0" to="E3" via="E0 E3" end="3600.00" vehsPerHour="15" />
    <flow id="f_7" type="DEFAULT_BIKETYPE" begin="0.00" color="blue" from="E0" to="E3" via="E0 E3" end="3600.00" vehsPerHour="22" />
    <flow id="f_8" type="DEFAULT_VEHTYPE" begin="0.00" color="yellow" from="E0" to="E3" via="E0 E3" end="3600.00" vehsPerHour="1250" />

   
    <flow id="f_12" type="DEFAULT_PEDTYPE" begin="0.00" color="magenta" from="-E3" to="-E0" via="-E3 -E0" end="3600.00" vehsPerHour="15" />
    <flow id="f_13" type="DEFAULT_BIKETYPE" begin="0.00" color="blue" from="-E3" to="-E0" via="-E3 -E0" end="3600.00" vehsPerHour="22" />
    <flow id="f_14" type="DEFAULT_VEHTYPE" begin="0.00" color="yellow" from="-E3" to="-E0" via="-E3 -E0" end="3600.00" vehsPerHour="1250" />

    <flow id="f_15" type="DEFAULT_PEDTYPE" begin="0.00" color="magenta" from="-E3" to="E2" via="-E3 E2" end="3600.00" vehsPerHour="15" />
    <flow id="f_16" type="DEFAULT_BIKETYPE" begin="0.00" color="blue" from="-E3" to="E2" via="-E3 E2" end="3600.00" vehsPerHour="22" />
    <flow id="f_17" type="DEFAULT_VEHTYPE" begin="0.00" color="yellow" from="-E3" to="E2" via="-E3 E2" end="3600.00" vehsPerHour="1250" />

    

    <flow id="f_21" type="DEFAULT_PEDTYPE" begin="0.00" color="magenta" from="-E2" to="E1" via="-E2 E1" end="3600.00" vehsPerHour="15" />
    <flow id="f_22" type="DEFAULT_BIKETYPE" begin="0.00" color="blue" from="-E2" to="E1" via="-E2 E1" end="3600.00" vehsPerHour="22" />
    <flow id="f_23" type="DEFAULT_VEHTYPE" begin="0.00" color="yellow" from="-E2" to="E1" via="-E2 E1" end="3600.00" vehsPerHour="1250" />

    <flow id="f_24" type="DEFAULT_PEDTYPE" begin="0.00" color="magenta" from="-E2" to="E3" via="-E2 E3" end="3600.00" vehsPerHour="15" />
    <flow id="f_25" type="DEFAULT_BIKETYPE" begin="0.00" color="blue" from="-E2" to="E3" via="-E2 E3" end="3600.00" vehsPerHour="22" />
    <flow id="f_26" type="DEFAULT_VEHTYPE" begin="0.00" color="yellow" from="-E2" to="E3" via="-E2 E3" end="3600.00" vehsPerHour="1250" />

    
    <flow id="f_30" type="DEFAULT_PEDTYPE" begin="0.00" color="magenta" from="-E1" to="-E0" via="-E1 -E0" end="3600.00" vehsPerHour="15" />
    <flow id="f_31" type="DEFAULT_BIKETYPE" begin="0.00" color="blue" from="-E1" to="-E0" via="-E1 -E0" end="3600.00" vehsPerHour="22" />
    <flow id="f_32" type="DEFAULT_VEHTYPE" begin="0.00" color="yellow" from="-E1" to="-E0" via="-E1 -E0" end="3600.00" vehsPerHour="1250" />

    <flow id="f_33" type="DEFAULT_PEDTYPE" begin="0.00" color="magenta" from="-E1" to="E2" via="-E1 E2" end="3600.00" vehsPerHour="15" />
    <flow id="f_34" type="DEFAULT_BIKETYPE" begin="0.00" color="blue" from="-E1" to="E2" via="-E1 E2" end="3600.00" vehsPerHour="22" />
    <flow id="f_35" type="DEFAULT_VEHTYPE" begin="0.00" color="yellow" from="-E1" to="E2" via="-E1 E2" end="3600.00" vehsPerHour="1250" /> -->

</routes>