<?xml version="1.0" encoding="UTF-8"?>

<!-- generated on 2023-02-10 11:01:39 by Eclipse SUMO netedit Version 1.15.0
<configuration xmlns:xsi="http://www.w3.org/2001/XMLSchema-instance" xsi:noNamespaceSchemaLocation="http://sumo.dlr.de/xsd/netconvertConfiguration.xsd">

    <input>
        <sumo-net-file value="C:\D\SUMO\MARL\multiagentRL\gym_sumo\envs\sumo_configs\intersection.net.xml"/>
    </input>

    <output>
        <output-file value="C:\D\SUMO\MARL\multiagentRL\gym_sumo\envs\sumo_configs\intersection_basse.net.xml"/>
    </output>

    <processing>
        <geometry.min-radius.fix.railways value="false"/>
        <geometry.max-grade.fix value="false"/>
        <offset.disable-normalization value="true"/>
        <lefthand value="0"/>
    </processing>

    <junctions>
        <no-turnarounds value="true"/>
        <junctions.corner-detail value="5"/>
        <junctions.limit-turn-speed value="5.50"/>
        <rectangular-lane-cut value="0"/>
    </junctions>

    <pedestrian>
        <walkingareas value="0"/>
    </pedestrian>

</configuration>
-->

<net version="1.9" junctionCornerDetail="5" limitTurnSpeed="5.50" xmlns:xsi="http://www.w3.org/2001/XMLSchema-instance" xsi:noNamespaceSchemaLocation="http://sumo.dlr.de/xsd/net_file.xsd">

    <location netOffset="0.00,0.00" convBoundary="-39.47,-28.16,149.85,120.79" origBoundary="-10000000000.00,-10000000000.00,10000000000.00,10000000000.00" projParameter="!"/>
   
    <edge id="-E0" from="J1" to="J0" priority="-1" length="100.00">
        <lane id="-E0_0" index="0" allow="pedestrian" speed="1.50" length="100.00" width="1.50" shape="48.36,58.86 -39.36,59.65"/>
        <lane id="-E0_1" index="1" allow="bicycle" speed="5.00" length="100.00" width="1.50" shape="48.35,57.36 -39.38,58.15"/>
        <lane id="-E0_2" index="2" allow="passenger" speed="13.89" length="100.00" width="9.60" shape="48.30,51.81 -39.43,52.60"/>
    </edge>
    <edge id="-E1" from="J2" to="J1" priority="-1" length="100.00">
        <lane id="-E1_0" index="0" allow="pedestrian" speed="1.50" length="100.00" width="1.50" shape="50.03,120.68 50.60,61.10"/>
        <lane id="-E1_1" index="1" allow="bicycle" speed="5.00" length="100.00" width="1.50" shape="51.53,120.69 52.10,61.12"/>
        <lane id="-E1_2" index="2" allow="passenger" speed="13.89" length="100.00" width="9.60" shape="57.08,120.74 57.65,61.17"/>
    </edge>
    <edge id="-E2" from="J3" to="J1" priority="-1" length="100.00">
        <lane id="-E2_0" index="0" allow="pedestrian" speed="1.50" length="100.00" width="1.50" shape="149.72,59.69 76.58,58.88"/>
        <lane id="-E2_1" index="1" allow="bicycle" speed="5.00" length="100.00" width="1.50" shape="149.74,58.19 76.59,57.38"/>
        <lane id="-E2_2" index="2" allow="passenger" speed="13.89" length="100.00" width="9.60" shape="149.80,52.64 76.65,51.84"/>
    </edge>
    <edge id="-E3" from="J4" to="J1" priority="-1" length="100.00">
        <lane id="-E3_0" index="0" allow="pedestrian" speed="1.50" length="100.00" width="1.50" shape="74.92,-28.08 74.53,32.91"/>
        <lane id="-E3_1" index="1" allow="bicycle" speed="5.00" length="100.00" width="1.50" shape="73.42,-28.09 73.03,32.90"/>
        <lane id="-E3_2" index="2" allow="passenger" speed="13.89" length="100.00" width="9.60" shape="67.87,-28.13 67.48,32.87"/>
    </edge>
    <edge id="E0" from="J0" to="J1" priority="-1" length="100.00">
        <lane id="E0_0" index="0" allow="pedestrian" speed="1.50" length="100.00" width="1.50" shape="-39.58,35.95 48.15,35.16"/>
        <lane id="E0_1" index="1" allow="bicycle" speed="5.00" length="100.00" width="1.50" shape="-39.56,37.45 48.16,36.66"/>
        <lane id="E0_2" index="2" allow="passenger" speed="13.89" length="100.00" width="9.60" shape="-39.51,43.00 48.21,42.21"/>
    </edge>
    <edge id="E1" from="J1" to="J2" priority="-1" length="100.00">
        <lane id="E1_0" index="0" allow="pedestrian" speed="1.50" length="100.00" width="1.50" shape="74.30,61.33 73.73,120.90"/>
        <lane id="E1_1" index="1" allow="bicycle" speed="5.00" length="100.00" width="1.50" shape="72.80,61.32 72.23,120.89"/>
        <lane id="E1_2" index="2" allow="passenger" speed="13.89" length="100.00" width="9.60" shape="67.25,61.26 66.68,120.84"/>
    </edge>
    <edge id="E2" from="J1" to="J3" priority="-1" length="100.00">
        <lane id="E2_0" index="0" allow="pedestrian bicycle" speed="1.50" length="100.00" width="1.50" shape="76.84,35.19 149.98,35.99"/>
        <lane id="E2_1" index="1" allow="bicycle" speed="5.00" length="100.00" width="1.50" shape="76.82,36.69 149.96,37.49"/>
        <lane id="E2_2" index="2" allow="passenger" speed="13.89" length="100.00" width="9.60" shape="76.76,42.24 149.90,43.04"/>
    </edge>
    <edge id="E3" from="J1" to="J4" priority="-1" length="100.00">
        <lane id="E3_0" index="0" allow="pedestrian" speed="1.50" length="100.00" width="1.50" shape="50.83,32.76 51.22,-28.24"/>
        <lane id="E3_1" index="1" allow="bicycle" speed="5.00" length="100.00" width="1.50" shape="52.33,32.77 52.72,-28.23"/>
        <lane id="E3_2" index="2" allow="passenger" speed="13.89" length="100.00" width="9.60" shape="57.88,32.81 58.27,-28.19"/>
    </edge>

    <junction id="J0" x="-39.47" y="47.80" incLanes="-E0_0 -E0_1 -E0_2" intLanes="" shape="-39.47,47.80 -39.36,60.40 -39.47,47.80"/>
    <junction id="J1" x="62.59" y="46.88" incLanes="-E2_0 -E2_1 -E2_2 -E3_0 -E3_1 -E3_2 E0_0 E0_1 E0_2 -E1_0 -E1_1 -E1_2" intLanes="" shape="76.57,59.63 76.85,34.44 75.97,34.26 75.67,34.05 75.45,33.75 75.32,33.38 75.28,32.92 50.08,32.76 49.86,33.67 49.59,33.99 49.21,34.22 48.73,34.36 48.14,34.41 48.37,59.61 49.20,59.77 49.49,59.97 49.69,60.26 49.82,60.64 49.85,61.10 75.05,61.34 75.23,60.38 75.44,60.05 75.73,59.82 76.11,59.68">

        
    </junction>
    <junction id="J2" x="61.88" y="120.79" incLanes="E1_0 E1_1 E1_2" intLanes="" shape="61.88,120.79 74.48,120.91 61.88,120.79"/>
    <junction id="J3" x="149.85" y="47.84" incLanes="E2_0 E2_1 E2_2" intLanes="" shape="149.85,47.84 149.99,35.24 149.85,47.84"/>
    <junction id="J4" x="63.07" y="-28.16" incLanes="E3_0 E3_1 E3_2" intLanes="" shape="63.07,-28.16 50.47,-28.24 63.07,-28.16">
    </junction>

 

</net>
