<?xml version="1.0" encoding="UTF-8"?>

<!-- generated on 2023-05-11 14:00:38 by Eclipse SUMO netedit Version 1.16.0
<configuration xmlns:xsi="http://www.w3.org/2001/XMLSchema-instance" xsi:noNamespaceSchemaLocation="http://sumo.dlr.de/xsd/netconvertConfiguration.xsd">

    <input>
        <sumo-net-file value="C:\D\SUMO\AdaptableStreets_Attempt4\gym_sumo\envs\sumo_configs\intersection.net.xml"/>
    </input>

    <output>
        <output-file value="C:\D\SUMO\AdaptableStreets_Attempt4\gym_sumo\envs\sumo_configs\intersection.net.xml"/>
    </output>

    <processing>
        <geometry.min-radius.fix.railways value="false"/>
        <geometry.max-grade.fix value="false"/>
        <offset.disable-normalization value="true"/>
        <lefthand value="0"/>
    </processing>

    <junctions>
        <no-turnarounds value="true"/>
        <junctions.corner-detail value="5"/>
        <junctions.limit-turn-speed value="5.50"/>
        <rectangular-lane-cut value="0"/>
    </junctions>

    <pedestrian>
        <walkingareas value="0"/>
    </pedestrian>

</configuration>
-->

<net version="1.16" junctionCornerDetail="5" limitTurnSpeed="5.50" xmlns:xsi="http://www.w3.org/2001/XMLSchema-instance" xsi:noNamespaceSchemaLocation="http://sumo.dlr.de/xsd/net_file.xsd">

    <location netOffset="0.00,0.00" convBoundary="-39.47,-28.16,149.85,120.79" origBoundary="-10000000000.00,-10000000000.00,10000000000.00,10000000000.00" projParameter="!"/>

    <edge id=":J1_0" function="internal">
        <lane id=":J1_0_0" index="0" allow="pedestrian" speed="1.50" length="28.27" width="1.50" shape="76.58,58.88 48.36,58.86"/>
        <lane id=":J1_0_1" index="1" allow="bicycle" speed="5.00" length="28.27" width="1.50" shape="76.59,57.38 48.35,57.36"/>
        <lane id=":J1_0_2" index="2" allow="passenger" speed="13.89" length="28.27" width="9.60" shape="76.65,51.84 48.30,51.81"/>
    </edge>
    <edge id=":J1_3" function="internal">
        <lane id=":J1_3_0" index="0" allow="pedestrian" speed="1.50" length="28.41" width="1.50" shape="74.53,32.91 74.30,61.33"/>
        <lane id=":J1_3_1" index="1" allow="bicycle" speed="5.00" length="28.41" width="1.50" shape="73.03,32.90 72.80,61.32"/>
        <lane id=":J1_3_2" index="2" allow="passenger" speed="13.89" length="28.41" width="9.60" shape="67.48,32.87 67.25,61.26"/>
    </edge>
    <edge id=":J1_6" function="internal">
        <lane id=":J1_6_0" index="0" allow="pedestrian" speed="1.50" length="28.63" width="1.50" shape="48.15,35.16 76.84,35.19"/>
        <lane id=":J1_6_1" index="1" allow="bicycle" speed="5.00" length="28.63" width="1.50" shape="48.16,36.66 76.82,36.69"/>
        <lane id=":J1_6_2" index="2" allow="passenger" speed="13.89" length="28.63" width="9.60" shape="48.21,42.21 76.76,42.24"/>
    </edge>
    <edge id=":J1_9" function="internal">
        <lane id=":J1_9_0" index="0" allow="pedestrian" speed="1.50" length="28.35" width="1.50" shape="50.60,61.10 50.83,32.76"/>
        <lane id=":J1_9_1" index="1" allow="bicycle" speed="5.00" length="28.35" width="1.50" shape="52.10,61.12 52.33,32.77"/>
        <lane id=":J1_9_2" index="2" allow="passenger" speed="13.89" length="28.35" width="9.60" shape="57.65,61.17 57.88,32.81"/>
    </edge>
    <edge id=":J4_0" function="internal">
        <lane id=":J4_0_0" index="0" allow="passenger" speed="6.32" length="14.02" width="9.60" shape="58.27,-28.19 60.69,-31.78 63.10,-32.96 65.49,-31.74 67.87,-28.13"/>
    </edge>

    <edge id="-E0" from="J1" to="J0" priority="-1" length="100.00">
        <lane id="-E0_0" index="0" allow="pedestrian" speed="1.50" length="100.00" width="1.50" shape="48.36,58.86 -39.36,59.65"/>
        <lane id="-E0_1" index="1" allow="bicycle" speed="5.00" length="100.00" width="1.50" shape="48.35,57.36 -39.38,58.15"/>
        <lane id="-E0_2" index="2" allow="passenger" speed="13.89" length="100.00" width="9.60" shape="48.30,51.81 -39.43,52.60"/>
    </edge>
    <edge id="-E1" from="J2" to="J1" priority="-1" length="100.00">
        <lane id="-E1_0" index="0" allow="pedestrian" speed="1.50" length="100.00" width="1.50" shape="50.03,120.68 50.60,61.10"/>
        <lane id="-E1_1" index="1" allow="bicycle" speed="5.00" length="100.00" width="1.50" shape="51.53,120.69 52.10,61.12"/>
        <lane id="-E1_2" index="2" allow="passenger" speed="13.89" length="100.00" width="9.60" shape="57.08,120.74 57.65,61.17"/>
    </edge>
    <edge id="-E2" from="J3" to="J1" priority="-1" length="100.00">
        <lane id="-E2_0" index="0" allow="pedestrian" speed="1.50" length="100.00" width="1.50" shape="149.72,59.69 76.58,58.88"/>
        <lane id="-E2_1" index="1" allow="bicycle" speed="5.00" length="100.00" width="1.50" shape="149.74,58.19 76.59,57.38"/>
        <lane id="-E2_2" index="2" allow="passenger" speed="13.89" length="100.00" width="9.60" shape="149.80,52.64 76.65,51.84"/>
    </edge>
    <edge id="-E3" from="J4" to="J1" priority="-1" length="100.00">
        <lane id="-E3_0" index="0" allow="pedestrian" speed="1.50" length="100.00" width="1.50" shape="74.92,-28.08 74.53,32.91"/>
        <lane id="-E3_1" index="1" allow="bicycle" speed="5.00" length="100.00" width="1.50" shape="73.42,-28.09 73.03,32.90"/>
        <lane id="-E3_2" index="2" allow="passenger" speed="13.89" length="100.00" width="9.60" shape="67.87,-28.13 67.48,32.87"/>
    </edge>
    <edge id="E0" from="J0" to="J1" priority="-1" length="100.00">
        <lane id="E0_0" index="0" allow="pedestrian" speed="1.50" length="100.00" width="1.50" shape="-39.58,35.95 48.15,35.16"/>
        <lane id="E0_1" index="1" allow="bicycle" speed="5.00" length="100.00" width="1.50" shape="-39.56,37.45 48.16,36.66"/>
        <lane id="E0_2" index="2" allow="passenger" speed="13.89" length="100.00" width="9.60" shape="-39.51,43.00 48.21,42.21"/>
    </edge>
    <edge id="E1" from="J1" to="J2" priority="-1" length="100.00">
        <lane id="E1_0" index="0" allow="pedestrian" speed="1.50" length="100.00" width="1.50" shape="74.30,61.33 73.73,120.90"/>
        <lane id="E1_1" index="1" allow="bicycle" speed="5.00" length="100.00" width="1.50" shape="72.80,61.32 72.23,120.89"/>
        <lane id="E1_2" index="2" allow="passenger" speed="13.89" length="100.00" width="9.60" shape="67.25,61.26 66.68,120.84"/>
    </edge>
    <edge id="E2" from="J1" to="J3" priority="-1" length="100.00">
        <lane id="E2_0" index="0" allow="pedestrian" speed="1.50" length="100.00" width="1.50" shape="76.84,35.19 149.98,35.99"/>
        <lane id="E2_1" index="1" allow="bicycle" speed="5.00" length="100.00" width="1.50" shape="76.82,36.69 149.96,37.49"/>
        <lane id="E2_2" index="2" allow="passenger" speed="13.89" length="100.00" width="9.60" shape="76.76,42.24 149.90,43.04"/>
    </edge>
    <edge id="E3" from="J1" to="J4" priority="-1" length="100.00">
        <lane id="E3_0" index="0" allow="pedestrian" speed="1.50" length="100.00" width="1.50" shape="50.83,32.76 51.22,-28.24"/>
        <lane id="E3_1" index="1" allow="bicycle" speed="5.00" length="100.00" width="1.50" shape="52.33,32.77 52.72,-28.23"/>
        <lane id="E3_2" index="2" allow="passenger" speed="13.89" length="100.00" width="9.60" shape="57.88,32.81 58.27,-28.19"/>
    </edge>

    <tlLogic id="J1" type="static" programID="0" offset="0">
        <phase duration="40" state="rrrGGGrrrGGG"/>
        <phase duration="3"  state="rrryyyrrryyy"/>
        <phase duration="2"  state="rrrrrrrrrrrr"/>
        <phase duration="40" state="GGGrrrGGGrrr"/>
        <phase duration="3"  state="yyyrrryyyrrr"/>
        <phase duration="2"  state="rrrrrrrrrrrr"/>
    </tlLogic>

    <junction id="J0" type="dead_end" x="-39.47" y="47.80" incLanes="-E0_0 -E0_1 -E0_2" intLanes="" shape="-39.47,47.80 -39.36,60.40 -39.47,47.80"/>
    <junction id="J1" type="traffic_light" x="62.59" y="46.88" incLanes="-E2_0 -E2_1 -E2_2 -E3_0 -E3_1 -E3_2 E0_0 E0_1 E0_2 -E1_0 -E1_1 -E1_2" intLanes=":J1_0_0 :J1_0_1 :J1_0_2 :J1_3_0 :J1_3_1 :J1_3_2 :J1_6_0 :J1_6_1 :J1_6_2 :J1_9_0 :J1_9_1 :J1_9_2" shape="76.57,59.63 76.85,34.44 75.97,34.26 75.67,34.05 75.45,33.75 75.32,33.38 75.28,32.92 50.08,32.76 49.86,33.67 49.59,33.99 49.21,34.22 48.73,34.36 48.14,34.41 48.37,59.61 49.20,59.77 49.49,59.97 49.69,60.26 49.82,60.64 49.85,61.10 75.05,61.34 75.23,60.38 75.44,60.05 75.73,59.82 76.11,59.68">
        <request index="0"  response="111000111000" foes="111000111000" cont="0"/>
        <request index="1"  response="111000111000" foes="111000111000" cont="0"/>
        <request index="2"  response="111000111000" foes="111000111000" cont="0"/>
        <request index="3"  response="000000000000" foes="000111000111" cont="0"/>
        <request index="4"  response="000000000000" foes="000111000111" cont="0"/>
        <request index="5"  response="000000000000" foes="000111000111" cont="0"/>
        <request index="6"  response="111000111000" foes="111000111000" cont="0"/>
        <request index="7"  response="111000111000" foes="111000111000" cont="0"/>
        <request index="8"  response="111000111000" foes="111000111000" cont="0"/>
        <request index="9"  response="000000000000" foes="000111000111" cont="0"/>
        <request index="10" response="000000000000" foes="000111000111" cont="0"/>
        <request index="11" response="000000000000" foes="000111000111" cont="0"/>
        <param key="jmCrossingGap" value="3"/>
        <param key="jmIgnoreKeepClearTime" value="0"/>
    </junction>
    <junction id="J2" type="dead_end" x="61.88" y="120.79" incLanes="E1_0 E1_1 E1_2" intLanes="" shape="61.88,120.79 74.48,120.91 61.88,120.79"/>
    <junction id="J3" type="dead_end" x="149.85" y="47.84" incLanes="E2_0 E2_1 E2_2" intLanes="" shape="149.85,47.84 149.99,35.24 149.85,47.84"/>
    <junction id="J4" type="priority" x="63.07" y="-28.16" incLanes="E3_0 E3_1 E3_2" intLanes=":J4_0_0" shape="63.07,-28.16 50.47,-28.24 63.07,-28.16">
        <request index="0" response="0" foes="0" cont="0"/>
    </junction>

    <connection from="-E1" to="E3" fromLane="0" toLane="0" via=":J1_9_0" tl="J1" linkIndex="9" dir="s" state="O"/>
    <connection from="-E1" to="E3" fromLane="1" toLane="1" via=":J1_9_1" tl="J1" linkIndex="10" dir="s" state="O"/>
    <connection from="-E1" to="E3" fromLane="2" toLane="2" via=":J1_9_2" tl="J1" linkIndex="11" dir="s" state="O"/>
    <connection from="-E2" to="-E0" fromLane="0" toLane="0" via=":J1_0_0" tl="J1" linkIndex="0" dir="s" state="o"/>
    <connection from="-E2" to="-E0" fromLane="1" toLane="1" via=":J1_0_1" tl="J1" linkIndex="1" dir="s" state="o"/>
    <connection from="-E2" to="-E0" fromLane="2" toLane="2" via=":J1_0_2" tl="J1" linkIndex="2" dir="s" state="o"/>
    <connection from="-E3" to="E1" fromLane="0" toLane="0" via=":J1_3_0" tl="J1" linkIndex="3" dir="s" state="O"/>
    <connection from="-E3" to="E1" fromLane="1" toLane="1" via=":J1_3_1" tl="J1" linkIndex="4" dir="s" state="O"/>
    <connection from="-E3" to="E1" fromLane="2" toLane="2" via=":J1_3_2" tl="J1" linkIndex="5" dir="s" state="O"/>
    <connection from="E0" to="E2" fromLane="0" toLane="0" via=":J1_6_0" tl="J1" linkIndex="6" dir="s" state="o"/>
    <connection from="E0" to="E2" fromLane="1" toLane="1" via=":J1_6_1" tl="J1" linkIndex="7" dir="s" state="o"/>
    <connection from="E0" to="E2" fromLane="2" toLane="2" via=":J1_6_2" tl="J1" linkIndex="8" dir="s" state="o"/>
    <connection from="E3" to="-E3" fromLane="2" toLane="2" via=":J4_0_0" dir="t" state="M"/>

    <connection from=":J1_0" to="-E0" fromLane="0" toLane="0" dir="s" state="M"/>
    <connection from=":J1_0" to="-E0" fromLane="1" toLane="1" dir="s" state="M"/>
    <connection from=":J1_0" to="-E0" fromLane="2" toLane="2" dir="s" state="M"/>
    <connection from=":J1_3" to="E1" fromLane="0" toLane="0" dir="s" state="M"/>
    <connection from=":J1_3" to="E1" fromLane="1" toLane="1" dir="s" state="M"/>
    <connection from=":J1_3" to="E1" fromLane="2" toLane="2" dir="s" state="M"/>
    <connection from=":J1_6" to="E2" fromLane="0" toLane="0" dir="s" state="M"/>
    <connection from=":J1_6" to="E2" fromLane="1" toLane="1" dir="s" state="M"/>
    <connection from=":J1_6" to="E2" fromLane="2" toLane="2" dir="s" state="M"/>
    <connection from=":J1_9" to="E3" fromLane="0" toLane="0" dir="s" state="M"/>
    <connection from=":J1_9" to="E3" fromLane="1" toLane="1" dir="s" state="M"/>
    <connection from=":J1_9" to="E3" fromLane="2" toLane="2" dir="s" state="M"/>
    <connection from=":J4_0" to="-E3" fromLane="0" toLane="2" dir="t" state="M"/>

</net>
