<?xml version="1.0" encoding="UTF-8"?>

<!-- generated on 2023-04-19 12:00:19 by Eclipse SUMO netedit Version 1.16.0
<configuration xmlns:xsi="http://www.w3.org/2001/XMLSchema-instance" xsi:noNamespaceSchemaLocation="http://sumo.dlr.de/xsd/netconvertConfiguration.xsd">

    <input>
        <sumo-net-file value="C:\D\SUMO\AdaptableStreets_Attempt4\environment\intersection.net.xml"/>
    </input>

    <output>
        <output-file value="C:\D\SUMO\AdaptableStreets_Attempt4\environment\intersection.net.xml"/>
    </output>

    <processing>
        <geometry.min-radius.fix.railways value="false"/>
        <geometry.max-grade.fix value="false"/>
        <offset.disable-normalization value="true"/>
        <lefthand value="0"/>
    </processing>

    <junctions>
        <no-turnarounds value="true"/>
        <junctions.corner-detail value="5"/>
        <junctions.limit-turn-speed value="5.50"/>
        <rectangular-lane-cut value="0"/>
    </junctions>

    <pedestrian>
        <walkingareas value="0"/>
    </pedestrian>

</configuration>
-->

<net version="1.16" junctionCornerDetail="5" limitTurnSpeed="5.50" xmlns:xsi="http://www.w3.org/2001/XMLSchema-instance" xsi:noNamespaceSchemaLocation="http://sumo.dlr.de/xsd/net_file.xsd">

    <location netOffset="0.00,0.00" convBoundary="-39.47,-28.16,149.85,120.79" origBoundary="-10000000000.00,-10000000000.00,10000000000.00,10000000000.00" projParameter="!"/>

    <edge id=":J1_0" function="internal">
        <lane id=":J1_0_0" index="0" allow="pedestrian" speed="1.50" length="28.23" width="1.50" shape="76.58,58.88 48.36,58.86"/>
        <lane id=":J1_0_1" index="1" allow="bicycle" speed="5.00" length="28.23" width="1.50" shape="76.59,57.38 48.35,57.36"/>
    </edge>
    <edge id=":J1_2" function="internal">
        <lane id=":J1_2_0" index="0" allow="bicycle" speed="5.00" length="23.33" width="1.50" shape="76.59,57.38 65.92,55.75 58.32,51.10 56.47,47.98"/>
    </edge>
    <edge id=":J1_3" function="internal">
        <lane id=":J1_3_0" index="0" allow="passenger" speed="13.89" length="28.36" width="9.60" shape="76.65,51.84 48.30,51.81"/>
    </edge>
    <edge id=":J1_16" function="internal">
        <lane id=":J1_16_0" index="0" allow="bicycle" speed="5.00" length="16.04" width="1.50" shape="56.47,47.98 53.79,43.44 52.33,32.77"/>
    </edge>
    <edge id=":J1_4" function="internal">
        <lane id=":J1_4_0" index="0" allow="pedestrian" speed="1.50" length="28.41" width="1.50" shape="74.53,32.91 74.30,61.33"/>
        <lane id=":J1_4_1" index="1" allow="bicycle" speed="5.00" length="28.41" width="1.50" shape="73.03,32.90 72.80,61.32"/>
    </edge>
    <edge id=":J1_6" function="internal">
        <lane id=":J1_6_0" index="0" allow="bicycle" speed="5.00" length="23.50" width="1.50" shape="73.03,32.90 71.43,43.52 66.78,51.13 63.48,53.11"/>
    </edge>
    <edge id=":J1_7" function="internal">
        <lane id=":J1_7_0" index="0" allow="passenger" speed="13.89" length="28.39" width="9.60" shape="67.48,32.87 67.25,61.26"/>
    </edge>
    <edge id=":J1_17" function="internal">
        <lane id=":J1_17_0" index="0" allow="bicycle" speed="5.00" length="15.98" width="1.50" shape="63.48,53.11 59.09,55.75 48.35,57.36"/>
    </edge>
    <edge id=":J1_8" function="internal">
        <lane id=":J1_8_0" index="0" allow="pedestrian" speed="1.50" length="28.68" width="1.50" shape="48.15,35.16 76.84,35.19"/>
        <lane id=":J1_8_1" index="1" allow="bicycle" speed="5.00" length="28.68" width="1.50" shape="48.16,36.66 76.82,36.69"/>
    </edge>
    <edge id=":J1_10" function="internal">
        <lane id=":J1_10_0" index="0" allow="bicycle" speed="5.00" length="23.85" width="1.50" shape="48.16,36.66 59.03,38.12 66.76,42.71 68.74,46.05"/>
    </edge>
    <edge id=":J1_11" function="internal">
        <lane id=":J1_11_0" index="0" allow="passenger" speed="13.89" length="28.55" width="9.60" shape="48.21,42.21 76.76,42.24"/>
    </edge>
    <edge id=":J1_18" function="internal">
        <lane id=":J1_18_0" index="0" allow="bicycle" speed="5.00" length="16.07" width="1.50" shape="68.74,46.05 71.35,50.44 72.80,61.32"/>
    </edge>
    <edge id=":J1_12" function="internal">
        <lane id=":J1_12_0" index="0" allow="pedestrian" speed="1.50" length="28.34" width="1.50" shape="50.60,61.10 50.83,32.76"/>
        <lane id=":J1_12_1" index="1" allow="bicycle" speed="5.00" length="28.34" width="1.50" shape="52.10,61.12 52.33,32.77"/>
    </edge>
    <edge id=":J1_14" function="internal">
        <lane id=":J1_14_0" index="0" allow="bicycle" speed="5.00" length="23.66" width="1.50" shape="52.10,61.12 53.74,50.33 58.40,42.66 61.65,40.74"/>
    </edge>
    <edge id=":J1_15" function="internal">
        <lane id=":J1_15_0" index="0" allow="passenger" speed="13.89" length="28.36" width="9.60" shape="57.65,61.17 57.88,32.81"/>
    </edge>
    <edge id=":J1_19" function="internal">
        <lane id=":J1_19_0" index="0" allow="bicycle" speed="5.00" length="15.98" width="1.50" shape="61.65,40.74 66.10,38.11 76.82,36.69"/>
    </edge>
    <edge id=":J4_0" function="internal">
        <lane id=":J4_0_0" index="0" allow="passenger" speed="6.32" length="14.02" width="9.60" shape="58.27,-28.19 60.69,-31.78 63.10,-32.96 65.49,-31.74 67.87,-28.13"/>
    </edge>

    <edge id="-E0" from="J1" to="J0" priority="-1" length="100.00">
        <lane id="-E0_0" index="0" allow="pedestrian" speed="1.50" length="100.00" width="1.50" shape="48.36,58.86 -39.36,59.65"/>
        <lane id="-E0_1" index="1" allow="bicycle" speed="5.00" length="100.00" width="1.50" shape="48.35,57.36 -39.38,58.15"/>
        <lane id="-E0_2" index="2" allow="passenger" speed="13.89" length="100.00" width="9.60" shape="48.30,51.81 -39.43,52.60"/>
    </edge>
    <edge id="-E1" from="J2" to="J1" priority="-1" length="100.00">
        <lane id="-E1_0" index="0" allow="pedestrian" speed="1.50" length="100.00" width="1.50" shape="50.03,120.68 50.60,61.10"/>
        <lane id="-E1_1" index="1" allow="bicycle" speed="5.00" length="100.00" width="1.50" shape="51.53,120.69 52.10,61.12"/>
        <lane id="-E1_2" index="2" allow="passenger" speed="13.89" length="100.00" width="9.60" shape="57.08,120.74 57.65,61.17"/>
    </edge>
    <edge id="-E2" from="J3" to="J1" priority="-1" length="100.00">
        <lane id="-E2_0" index="0" allow="pedestrian" speed="1.50" length="100.00" width="1.50" shape="149.72,59.69 76.58,58.88"/>
        <lane id="-E2_1" index="1" allow="bicycle" speed="5.00" length="100.00" width="1.50" shape="149.74,58.19 76.59,57.38"/>
        <lane id="-E2_2" index="2" allow="passenger" speed="13.89" length="100.00" width="9.60" shape="149.80,52.64 76.65,51.84"/>
    </edge>
    <edge id="-E3" from="J4" to="J1" priority="-1" length="100.00">
        <lane id="-E3_0" index="0" allow="pedestrian" speed="1.50" length="100.00" width="1.50" shape="74.92,-28.08 74.53,32.91"/>
        <lane id="-E3_1" index="1" allow="bicycle" speed="5.00" length="100.00" width="1.50" shape="73.42,-28.09 73.03,32.90"/>
        <lane id="-E3_2" index="2" allow="passenger" speed="13.89" length="100.00" width="9.60" shape="67.87,-28.13 67.48,32.87"/>
    </edge>
    <edge id="E0" from="J0" to="J1" priority="-1" length="100.00">
        <lane id="E0_0" index="0" allow="pedestrian" speed="1.50" length="100.00" width="1.50" shape="-39.58,35.95 48.15,35.16"/>
        <lane id="E0_1" index="1" allow="bicycle" speed="5.00" length="100.00" width="1.50" shape="-39.56,37.45 48.16,36.66"/>
        <lane id="E0_2" index="2" allow="passenger" speed="13.89" length="100.00" width="9.60" shape="-39.51,43.00 48.21,42.21"/>
    </edge>
    <edge id="E1" from="J1" to="J2" priority="-1" length="100.00">
        <lane id="E1_0" index="0" allow="pedestrian" speed="1.50" length="100.00" width="1.50" shape="74.30,61.33 73.73,120.90"/>
        <lane id="E1_1" index="1" allow="bicycle" speed="5.00" length="100.00" width="1.50" shape="72.80,61.32 72.23,120.89"/>
        <lane id="E1_2" index="2" allow="passenger" speed="13.89" length="100.00" width="9.60" shape="67.25,61.26 66.68,120.84"/>
    </edge>
    <edge id="E2" from="J1" to="J3" priority="-1" length="100.00">
        <lane id="E2_0" index="0" allow="pedestrian" speed="1.50" length="100.00" width="1.50" shape="76.84,35.19 149.98,35.99"/>
        <lane id="E2_1" index="1" allow="bicycle" speed="5.00" length="100.00" width="1.50" shape="76.82,36.69 149.96,37.49"/>
        <lane id="E2_2" index="2" allow="passenger bicycle" speed="13.89" length="100.00" width="9.60" shape="76.76,42.24 149.90,43.04"/>
    </edge>
    <edge id="E3" from="J1" to="J4" priority="-1" length="100.00">
        <lane id="E3_0" index="0" allow="pedestrian" speed="1.50" length="100.00" width="1.50" shape="50.83,32.76 51.22,-28.24"/>
        <lane id="E3_1" index="1" allow="bicycle" speed="5.00" length="100.00" width="1.50" shape="52.33,32.77 52.72,-28.23"/>
        <lane id="E3_2" index="2" allow="passenger" speed="13.89" length="100.00" width="9.60" shape="57.88,32.81 58.27,-28.19"/>
    </edge>

    <tlLogic id="J1" type="static" programID="0" offset="0">
        <phase duration="39" state="rrrrGGgGrrrrGGgG"/>
        <phase duration="3"  state="rrrryyyyrrrryyyy"/>
        <phase duration="3"  state="rrrrrrrrrrrrrrrr"/>
        <phase duration="39" state="GGgGrrrrGGgGrrrr"/>
        <phase duration="3"  state="yyyyrrrryyyyrrrr"/>
        <phase duration="3"  state="rrrrrrrrrrrrrrrr"/>
    </tlLogic>

    <junction id="J0" type="dead_end" x="-39.47" y="47.80" incLanes="-E0_0 -E0_1 -E0_2" intLanes="" shape="-39.47,47.80 -39.36,60.40 -39.47,47.80"/>
    <junction id="J1" type="traffic_light" x="62.59" y="46.88" incLanes="-E2_0 -E2_1 -E2_2 -E3_0 -E3_1 -E3_2 E0_0 E0_1 E0_2 -E1_0 -E1_1 -E1_2" intLanes=":J1_0_0 :J1_0_1 :J1_16_0 :J1_3_0 :J1_4_0 :J1_4_1 :J1_17_0 :J1_7_0 :J1_8_0 :J1_8_1 :J1_18_0 :J1_11_0 :J1_12_0 :J1_12_1 :J1_19_0 :J1_15_0" shape="76.57,59.63 76.85,34.44 75.97,34.26 75.67,34.05 75.45,33.75 75.32,33.38 75.28,32.92 50.08,32.76 49.86,33.67 49.59,33.99 49.21,34.22 48.73,34.36 48.14,34.41 48.37,59.61 49.20,59.77 49.49,59.97 49.69,60.26 49.82,60.64 49.85,61.10 75.05,61.34 75.23,60.38 75.44,60.05 75.73,59.82 76.11,59.68">
        <request index="0"  response="1111000010110000" foes="1111010010110000" cont="0"/>
        <request index="1"  response="1111000011110000" foes="1111010011110000" cont="0"/>
        <request index="2"  response="1110111111111000" foes="1110111111111000" cont="1"/>
        <request index="3"  response="1111000011110000" foes="1111010011110100" cont="0"/>
        <request index="4"  response="0000000000000100" foes="0100101100001111" cont="0"/>
        <request index="5"  response="0000010000000100" foes="0100111100001111" cont="0"/>
        <request index="6"  response="1011010010000100" foes="1111111110001110" cont="1"/>
        <request index="7"  response="0000000000000000" foes="0100111101001111" cont="0"/>
        <request index="8"  response="1011000011110000" foes="1011000011110100" cont="0"/>
        <request index="9"  response="1111000011110000" foes="1111000011110100" cont="0"/>
        <request index="10" response="1111100011101011" foes="1111100011101111" cont="1"/>
        <request index="11" response="1111000011110000" foes="1111010011110100" cont="0"/>
        <request index="12" response="0000010000000000" foes="0000111101001011" cont="0"/>
        <request index="13" response="0000010000000100" foes="0000111101001111" cont="0"/>
        <request index="14" response="1000010011110100" foes="1000111011111111" cont="1"/>
        <request index="15" response="0000000000000000" foes="0100111101001111" cont="0"/>
        <param key="jmCrossingGap" value="3"/>
        <param key="jmIgnoreKeepClearTime" value="0"/>
    </junction>
    <junction id="J2" type="dead_end" x="61.88" y="120.79" incLanes="E1_0 E1_1 E1_2" intLanes="" shape="61.88,120.79 74.48,120.91 61.88,120.79"/>
    <junction id="J3" type="dead_end" x="149.85" y="47.84" incLanes="E2_0 E2_1 E2_2" intLanes="" shape="149.85,47.84 149.99,35.24 149.85,47.84"/>
    <junction id="J4" type="priority" x="63.07" y="-28.16" incLanes="E3_0 E3_1 E3_2" intLanes=":J4_0_0" shape="63.07,-28.16 50.47,-28.24 63.07,-28.16">
        <request index="0" response="0" foes="0" cont="0"/>
    </junction>

    <junction id=":J1_16_0" type="internal" x="56.47" y="47.98" incLanes=":J1_2_0 E0_0 E0_1 E0_2" intLanes=":J1_3_0 :J1_4_0 :J1_4_1 :J1_6_0 :J1_7_0 :J1_8_0 :J1_8_1 :J1_10_0 :J1_11_0 :J1_12_0 :J1_12_1 :J1_14_0 :J1_15_0"/>
    <junction id=":J1_17_0" type="internal" x="63.48" y="53.11" incLanes=":J1_6_0 -E1_0 -E1_1 -E1_2" intLanes=":J1_0_0 :J1_0_1 :J1_2_0 :J1_3_0 :J1_7_0 :J1_8_0 :J1_8_1 :J1_10_0 :J1_11_0 :J1_12_0 :J1_12_1 :J1_14_0 :J1_15_0"/>
    <junction id=":J1_18_0" type="internal" x="68.74" y="46.05" incLanes=":J1_10_0 -E2_0 -E2_1 -E2_2" intLanes=":J1_0_0 :J1_0_1 :J1_2_0 :J1_3_0 :J1_4_0 :J1_4_1 :J1_6_0 :J1_7_0 :J1_11_0 :J1_12_0 :J1_12_1 :J1_14_0 :J1_15_0"/>
    <junction id=":J1_19_0" type="internal" x="61.65" y="40.74" incLanes=":J1_14_0 -E3_0 -E3_1 -E3_2 :J1_6_0" intLanes=":J1_17_0 :J1_0_0 :J1_0_1 :J1_2_0 :J1_3_0 :J1_4_0 :J1_4_1 :J1_6_0 :J1_7_0 :J1_8_0 :J1_8_1 :J1_10_0 :J1_11_0 :J1_15_0"/>

    <connection from="-E1" to="E3" fromLane="0" toLane="0" via=":J1_12_0" tl="J1" linkIndex="12" dir="s" state="O"/>
    <connection from="-E1" to="E3" fromLane="1" toLane="1" via=":J1_12_1" tl="J1" linkIndex="13" dir="s" state="O"/>
    <connection from="-E1" to="E2" fromLane="1" toLane="1" via=":J1_14_0" tl="J1" linkIndex="14" dir="l" state="o"/>
    <connection from="-E1" to="E3" fromLane="2" toLane="2" pass="1" via=":J1_15_0" tl="J1" linkIndex="15" dir="s" state="O"/>
    <connection from="-E2" to="-E0" fromLane="0" toLane="0" via=":J1_0_0" tl="J1" linkIndex="0" dir="s" state="o"/>
    <connection from="-E2" to="-E0" fromLane="1" toLane="1" via=":J1_0_1" tl="J1" linkIndex="1" dir="s" state="o"/>
    <connection from="-E2" to="E3" fromLane="1" toLane="1" via=":J1_2_0" tl="J1" linkIndex="2" dir="l" state="o"/>
    <connection from="-E2" to="-E0" fromLane="2" toLane="2" via=":J1_3_0" tl="J1" linkIndex="3" dir="s" state="o"/>
    <connection from="-E3" to="E1" fromLane="0" toLane="0" via=":J1_4_0" tl="J1" linkIndex="4" dir="s" state="O"/>
    <connection from="-E3" to="E1" fromLane="1" toLane="1" via=":J1_4_1" tl="J1" linkIndex="5" dir="s" state="O"/>
    <connection from="-E3" to="-E0" fromLane="1" toLane="1" via=":J1_6_0" tl="J1" linkIndex="6" dir="l" state="o"/>
    <connection from="-E3" to="E1" fromLane="2" toLane="2" pass="1" via=":J1_7_0" tl="J1" linkIndex="7" dir="s" state="O"/>
    <connection from="E0" to="E2" fromLane="0" toLane="0" via=":J1_8_0" tl="J1" linkIndex="8" dir="s" state="o"/>
    <connection from="E0" to="E2" fromLane="1" toLane="1" via=":J1_8_1" tl="J1" linkIndex="9" dir="s" state="o"/>
    <connection from="E0" to="E1" fromLane="1" toLane="1" via=":J1_10_0" tl="J1" linkIndex="10" dir="l" state="o"/>
    <connection from="E0" to="E2" fromLane="2" toLane="2" via=":J1_11_0" tl="J1" linkIndex="11" dir="s" state="o"/>
    <connection from="E3" to="-E3" fromLane="2" toLane="2" via=":J4_0_0" dir="t" state="M"/>

    <connection from=":J1_0" to="-E0" fromLane="0" toLane="0" dir="s" state="M"/>
    <connection from=":J1_0" to="-E0" fromLane="1" toLane="1" dir="s" state="M"/>
    <connection from=":J1_2" to="E3" fromLane="0" toLane="1" via=":J1_16_0" dir="l" state="m"/>
    <connection from=":J1_16" to="E3" fromLane="0" toLane="1" dir="l" state="M"/>
    <connection from=":J1_3" to="-E0" fromLane="0" toLane="2" dir="s" state="M"/>
    <connection from=":J1_4" to="E1" fromLane="0" toLane="0" dir="s" state="M"/>
    <connection from=":J1_4" to="E1" fromLane="1" toLane="1" dir="s" state="M"/>
    <connection from=":J1_6" to="-E0" fromLane="0" toLane="1" via=":J1_17_0" dir="l" state="m"/>
    <connection from=":J1_17" to="-E0" fromLane="0" toLane="1" dir="l" state="M"/>
    <connection from=":J1_7" to="E1" fromLane="0" toLane="2" dir="s" state="M"/>
    <connection from=":J1_8" to="E2" fromLane="0" toLane="0" dir="s" state="M"/>
    <connection from=":J1_8" to="E2" fromLane="1" toLane="1" dir="s" state="M"/>
    <connection from=":J1_10" to="E1" fromLane="0" toLane="1" via=":J1_18_0" dir="l" state="m"/>
    <connection from=":J1_18" to="E1" fromLane="0" toLane="1" dir="l" state="M"/>
    <connection from=":J1_11" to="E2" fromLane="0" toLane="2" dir="s" state="M"/>
    <connection from=":J1_12" to="E3" fromLane="0" toLane="0" dir="s" state="M"/>
    <connection from=":J1_12" to="E3" fromLane="1" toLane="1" dir="s" state="M"/>
    <connection from=":J1_14" to="E2" fromLane="0" toLane="1" via=":J1_19_0" dir="l" state="m"/>
    <connection from=":J1_19" to="E2" fromLane="0" toLane="1" dir="l" state="M"/>
    <connection from=":J1_15" to="E3" fromLane="0" toLane="2" dir="s" state="M"/>
    <connection from=":J4_0" to="-E3" fromLane="0" toLane="2" dir="t" state="M"/>

</net>
