<routes>
  <flow type="DEFAULT_VEHTYPE" color="yellow" id="E0_slot_0_action_0_f_0" vehsPerHour="1" from="E0" to="E2" begin="0" end="300"/>
  <flow type="DEFAULT_VEHTYPE" color="yellow" id="E0_slot_0_action_1_f_0" vehsPerHour="1" from="E0" to="E2" begin="300" end="600"/>
  <flow type="DEFAULT_VEHTYPE" color="yellow" id="E0_slot_0_action_2_f_0" vehsPerHour="1" from="E0" to="E2" begin="600" end="900"/>
  <flow type="DEFAULT_VEHTYPE" color="yellow" id="E0_slot_0_action_3_f_0" vehsPerHour="1" from="E0" to="E2" begin="900" end="1200"/>
  <flow type="DEFAULT_VEHTYPE" color="yellow" id="E0_slot_0_action_4_f_0" vehsPerHour="1" from="E0" to="E2" begin="1200" end="1500"/>
  <flow type="DEFAULT_VEHTYPE" color="yellow" id="E0_slot_0_action_5_f_0" vehsPerHour="1" from="E0" to="E2" begin="1500" end="1800"/>
  <flow type="DEFAULT_PEDTYPE" color="magenta" id="E0_slot_0_action_0_f_1" vehsPerHour="1" from="E0" to="E2" begin="0" end="300"/>
  <flow type="DEFAULT_PEDTYPE" color="magenta" id="E0_slot_0_action_1_f_1" vehsPerHour="1" from="E0" to="E2" begin="300" end="600"/>
  <flow type="DEFAULT_PEDTYPE" color="magenta" id="E0_slot_0_action_2_f_1" vehsPerHour="1" from="E0" to="E2" begin="600" end="900"/>
  <flow type="DEFAULT_PEDTYPE" color="magenta" id="E0_slot_0_action_3_f_1" vehsPerHour="1" from="E0" to="E2" begin="900" end="1200"/>
  <flow type="DEFAULT_PEDTYPE" color="magenta" id="E0_slot_0_action_4_f_1" vehsPerHour="1" from="E0" to="E2" begin="1200" end="1500"/>
  <flow type="DEFAULT_PEDTYPE" color="magenta" id="E0_slot_0_action_5_f_1" vehsPerHour="1" from="E0" to="E2" begin="1500" end="1800"/>
  <flow type="DEFAULT_BIKETYPE" color="blue" id="E0_slot_0_action_0_f_2" vehsPerHour="143" from="E0" to="E2" begin="0" end="300"/>
  <flow type="DEFAULT_BIKETYPE" color="blue" id="E0_slot_0_action_1_f_2" vehsPerHour="143" from="E0" to="E2" begin="300" end="600"/>
  <flow type="DEFAULT_BIKETYPE" color="blue" id="E0_slot_0_action_2_f_2" vehsPerHour="143" from="E0" to="E2" begin="600" end="900"/>
  <flow type="DEFAULT_BIKETYPE" color="blue" id="E0_slot_0_action_3_f_2" vehsPerHour="143" from="E0" to="E2" begin="900" end="1200"/>
  <flow type="DEFAULT_BIKETYPE" color="blue" id="E0_slot_0_action_4_f_2" vehsPerHour="143" from="E0" to="E2" begin="1200" end="1500"/>
  <flow type="DEFAULT_BIKETYPE" color="blue" id="E0_slot_0_action_5_f_2" vehsPerHour="143" from="E0" to="E2" begin="1500" end="1800"/>
  <flow type="DEFAULT_VEHTYPE" color="yellow" id="-E1_slot_0_action_0_f_0" vehsPerHour="1" from="-E1" to="E3" begin="0" end="300"/>
  <flow type="DEFAULT_VEHTYPE" color="yellow" id="-E1_slot_0_action_1_f_0" vehsPerHour="1" from="-E1" to="E3" begin="300" end="600"/>
  <flow type="DEFAULT_VEHTYPE" color="yellow" id="-E1_slot_0_action_2_f_0" vehsPerHour="1" from="-E1" to="E3" begin="600" end="900"/>
  <flow type="DEFAULT_VEHTYPE" color="yellow" id="-E1_slot_0_action_3_f_0" vehsPerHour="1" from="-E1" to="E3" begin="900" end="1200"/>
  <flow type="DEFAULT_VEHTYPE" color="yellow" id="-E1_slot_0_action_4_f_0" vehsPerHour="1" from="-E1" to="E3" begin="1200" end="1500"/>
  <flow type="DEFAULT_VEHTYPE" color="yellow" id="-E1_slot_0_action_5_f_0" vehsPerHour="1" from="-E1" to="E3" begin="1500" end="1800"/>
  <flow type="DEFAULT_PEDTYPE" color="magenta" id="-E1_slot_0_action_0_f_1" vehsPerHour="1" from="-E1" to="E3" begin="0" end="300"/>
  <flow type="DEFAULT_PEDTYPE" color="magenta" id="-E1_slot_0_action_1_f_1" vehsPerHour="1" from="-E1" to="E3" begin="300" end="600"/>
  <flow type="DEFAULT_PEDTYPE" color="magenta" id="-E1_slot_0_action_2_f_1" vehsPerHour="1" from="-E1" to="E3" begin="600" end="900"/>
  <flow type="DEFAULT_PEDTYPE" color="magenta" id="-E1_slot_0_action_3_f_1" vehsPerHour="1" from="-E1" to="E3" begin="900" end="1200"/>
  <flow type="DEFAULT_PEDTYPE" color="magenta" id="-E1_slot_0_action_4_f_1" vehsPerHour="1" from="-E1" to="E3" begin="1200" end="1500"/>
  <flow type="DEFAULT_PEDTYPE" color="magenta" id="-E1_slot_0_action_5_f_1" vehsPerHour="1" from="-E1" to="E3" begin="1500" end="1800"/>
  <flow type="DEFAULT_BIKETYPE" color="blue" id="-E1_slot_0_action_0_f_2" vehsPerHour="143" from="-E1" to="E3" begin="0" end="300"/>
  <flow type="DEFAULT_BIKETYPE" color="blue" id="-E1_slot_0_action_1_f_2" vehsPerHour="143" from="-E1" to="E3" begin="300" end="600"/>
  <flow type="DEFAULT_BIKETYPE" color="blue" id="-E1_slot_0_action_2_f_2" vehsPerHour="143" from="-E1" to="E3" begin="600" end="900"/>
  <flow type="DEFAULT_BIKETYPE" color="blue" id="-E1_slot_0_action_3_f_2" vehsPerHour="143" from="-E1" to="E3" begin="900" end="1200"/>
  <flow type="DEFAULT_BIKETYPE" color="blue" id="-E1_slot_0_action_4_f_2" vehsPerHour="143" from="-E1" to="E3" begin="1200" end="1500"/>
  <flow type="DEFAULT_BIKETYPE" color="blue" id="-E1_slot_0_action_5_f_2" vehsPerHour="143" from="-E1" to="E3" begin="1500" end="1800"/>
  <flow type="DEFAULT_VEHTYPE" color="yellow" id="-E2_slot_0_action_0_f_0" vehsPerHour="1" from="-E2" to="-E0" begin="0" end="300"/>
  <flow type="DEFAULT_VEHTYPE" color="yellow" id="-E2_slot_0_action_1_f_0" vehsPerHour="1" from="-E2" to="-E0" begin="300" end="600"/>
  <flow type="DEFAULT_VEHTYPE" color="yellow" id="-E2_slot_0_action_2_f_0" vehsPerHour="1" from="-E2" to="-E0" begin="600" end="900"/>
  <flow type="DEFAULT_VEHTYPE" color="yellow" id="-E2_slot_0_action_3_f_0" vehsPerHour="1" from="-E2" to="-E0" begin="900" end="1200"/>
  <flow type="DEFAULT_VEHTYPE" color="yellow" id="-E2_slot_0_action_4_f_0" vehsPerHour="1" from="-E2" to="-E0" begin="1200" end="1500"/>
  <flow type="DEFAULT_VEHTYPE" color="yellow" id="-E2_slot_0_action_5_f_0" vehsPerHour="1" from="-E2" to="-E0" begin="1500" end="1800"/>
  <flow type="DEFAULT_PEDTYPE" color="magenta" id="-E2_slot_0_action_0_f_1" vehsPerHour="1" from="-E2" to="-E0" begin="0" end="300"/>
  <flow type="DEFAULT_PEDTYPE" color="magenta" id="-E2_slot_0_action_1_f_1" vehsPerHour="1" from="-E2" to="-E0" begin="300" end="600"/>
  <flow type="DEFAULT_PEDTYPE" color="magenta" id="-E2_slot_0_action_2_f_1" vehsPerHour="1" from="-E2" to="-E0" begin="600" end="900"/>
  <flow type="DEFAULT_PEDTYPE" color="magenta" id="-E2_slot_0_action_3_f_1" vehsPerHour="1" from="-E2" to="-E0" begin="900" end="1200"/>
  <flow type="DEFAULT_PEDTYPE" color="magenta" id="-E2_slot_0_action_4_f_1" vehsPerHour="1" from="-E2" to="-E0" begin="1200" end="1500"/>
  <flow type="DEFAULT_PEDTYPE" color="magenta" id="-E2_slot_0_action_5_f_1" vehsPerHour="1" from="-E2" to="-E0" begin="1500" end="1800"/>
  <flow type="DEFAULT_BIKETYPE" color="blue" id="-E2_slot_0_action_0_f_2" vehsPerHour="143" from="-E2" to="-E0" begin="0" end="300"/>
  <flow type="DEFAULT_BIKETYPE" color="blue" id="-E2_slot_0_action_1_f_2" vehsPerHour="143" from="-E2" to="-E0" begin="300" end="600"/>
  <flow type="DEFAULT_BIKETYPE" color="blue" id="-E2_slot_0_action_2_f_2" vehsPerHour="143" from="-E2" to="-E0" begin="600" end="900"/>
  <flow type="DEFAULT_BIKETYPE" color="blue" id="-E2_slot_0_action_3_f_2" vehsPerHour="143" from="-E2" to="-E0" begin="900" end="1200"/>
  <flow type="DEFAULT_BIKETYPE" color="blue" id="-E2_slot_0_action_4_f_2" vehsPerHour="143" from="-E2" to="-E0" begin="1200" end="1500"/>
  <flow type="DEFAULT_BIKETYPE" color="blue" id="-E2_slot_0_action_5_f_2" vehsPerHour="143" from="-E2" to="-E0" begin="1500" end="1800"/>
  <flow type="DEFAULT_VEHTYPE" color="yellow" id="-E3_slot_0_action_0_f_0" vehsPerHour="1" from="-E3" to="E1" begin="0" end="300"/>
  <flow type="DEFAULT_VEHTYPE" color="yellow" id="-E3_slot_0_action_1_f_0" vehsPerHour="1" from="-E3" to="E1" begin="300" end="600"/>
  <flow type="DEFAULT_VEHTYPE" color="yellow" id="-E3_slot_0_action_2_f_0" vehsPerHour="1" from="-E3" to="E1" begin="600" end="900"/>
  <flow type="DEFAULT_VEHTYPE" color="yellow" id="-E3_slot_0_action_3_f_0" vehsPerHour="1" from="-E3" to="E1" begin="900" end="1200"/>
  <flow type="DEFAULT_VEHTYPE" color="yellow" id="-E3_slot_0_action_4_f_0" vehsPerHour="1" from="-E3" to="E1" begin="1200" end="1500"/>
  <flow type="DEFAULT_VEHTYPE" color="yellow" id="-E3_slot_0_action_5_f_0" vehsPerHour="1" from="-E3" to="E1" begin="1500" end="1800"/>
  <flow type="DEFAULT_PEDTYPE" color="magenta" id="-E3_slot_0_action_0_f_1" vehsPerHour="1" from="-E3" to="E1" begin="0" end="300"/>
  <flow type="DEFAULT_PEDTYPE" color="magenta" id="-E3_slot_0_action_1_f_1" vehsPerHour="1" from="-E3" to="E1" begin="300" end="600"/>
  <flow type="DEFAULT_PEDTYPE" color="magenta" id="-E3_slot_0_action_2_f_1" vehsPerHour="1" from="-E3" to="E1" begin="600" end="900"/>
  <flow type="DEFAULT_PEDTYPE" color="magenta" id="-E3_slot_0_action_3_f_1" vehsPerHour="1" from="-E3" to="E1" begin="900" end="1200"/>
  <flow type="DEFAULT_PEDTYPE" color="magenta" id="-E3_slot_0_action_4_f_1" vehsPerHour="1" from="-E3" to="E1" begin="1200" end="1500"/>
  <flow type="DEFAULT_PEDTYPE" color="magenta" id="-E3_slot_0_action_5_f_1" vehsPerHour="1" from="-E3" to="E1" begin="1500" end="1800"/>
  <flow type="DEFAULT_BIKETYPE" color="blue" id="-E3_slot_0_action_0_f_2" vehsPerHour="143" from="-E3" to="E1" begin="0" end="300"/>
  <flow type="DEFAULT_BIKETYPE" color="blue" id="-E3_slot_0_action_1_f_2" vehsPerHour="143" from="-E3" to="E1" begin="300" end="600"/>
  <flow type="DEFAULT_BIKETYPE" color="blue" id="-E3_slot_0_action_2_f_2" vehsPerHour="143" from="-E3" to="E1" begin="600" end="900"/>
  <flow type="DEFAULT_BIKETYPE" color="blue" id="-E3_slot_0_action_3_f_2" vehsPerHour="143" from="-E3" to="E1" begin="900" end="1200"/>
  <flow type="DEFAULT_BIKETYPE" color="blue" id="-E3_slot_0_action_4_f_2" vehsPerHour="143" from="-E3" to="E1" begin="1200" end="1500"/>
  <flow type="DEFAULT_BIKETYPE" color="blue" id="-E3_slot_0_action_5_f_2" vehsPerHour="143" from="-E3" to="E1" begin="1500" end="1800"/>
  <flow type="DEFAULT_VEHTYPE" color="yellow" id="E0_slot_1_action_0_f_0" vehsPerHour="287" from="E0" to="E2" begin="1800" end="2100"/>
  <flow type="DEFAULT_VEHTYPE" color="yellow" id="E0_slot_1_action_1_f_0" vehsPerHour="287" from="E0" to="E2" begin="2100" end="2400"/>
  <flow type="DEFAULT_VEHTYPE" color="yellow" id="E0_slot_1_action_2_f_0" vehsPerHour="287" from="E0" to="E2" begin="2400" end="2700"/>
  <flow type="DEFAULT_VEHTYPE" color="yellow" id="E0_slot_1_action_3_f_0" vehsPerHour="287" from="E0" to="E2" begin="2700" end="3000"/>
  <flow type="DEFAULT_VEHTYPE" color="yellow" id="E0_slot_1_action_4_f_0" vehsPerHour="287" from="E0" to="E2" begin="3000" end="3300"/>
  <flow type="DEFAULT_VEHTYPE" color="yellow" id="E0_slot_1_action_5_f_0" vehsPerHour="287" from="E0" to="E2" begin="3300" end="3600"/>
  <flow type="DEFAULT_PEDTYPE" color="magenta" id="E0_slot_1_action_0_f_1" vehsPerHour="1" from="E0" to="E2" begin="1800" end="2100"/>
  <flow type="DEFAULT_PEDTYPE" color="magenta" id="E0_slot_1_action_1_f_1" vehsPerHour="1" from="E0" to="E2" begin="2100" end="2400"/>
  <flow type="DEFAULT_PEDTYPE" color="magenta" id="E0_slot_1_action_2_f_1" vehsPerHour="1" from="E0" to="E2" begin="2400" end="2700"/>
  <flow type="DEFAULT_PEDTYPE" color="magenta" id="E0_slot_1_action_3_f_1" vehsPerHour="1" from="E0" to="E2" begin="2700" end="3000"/>
  <flow type="DEFAULT_PEDTYPE" color="magenta" id="E0_slot_1_action_4_f_1" vehsPerHour="1" from="E0" to="E2" begin="3000" end="3300"/>
  <flow type="DEFAULT_PEDTYPE" color="magenta" id="E0_slot_1_action_5_f_1" vehsPerHour="1" from="E0" to="E2" begin="3300" end="3600"/>
  <flow type="DEFAULT_BIKETYPE" color="blue" id="E0_slot_1_action_0_f_2" vehsPerHour="1" from="E0" to="E2" begin="1800" end="2100"/>
  <flow type="DEFAULT_BIKETYPE" color="blue" id="E0_slot_1_action_1_f_2" vehsPerHour="1" from="E0" to="E2" begin="2100" end="2400"/>
  <flow type="DEFAULT_BIKETYPE" color="blue" id="E0_slot_1_action_2_f_2" vehsPerHour="1" from="E0" to="E2" begin="2400" end="2700"/>
  <flow type="DEFAULT_BIKETYPE" color="blue" id="E0_slot_1_action_3_f_2" vehsPerHour="1" from="E0" to="E2" begin="2700" end="3000"/>
  <flow type="DEFAULT_BIKETYPE" color="blue" id="E0_slot_1_action_4_f_2" vehsPerHour="1" from="E0" to="E2" begin="3000" end="3300"/>
  <flow type="DEFAULT_BIKETYPE" color="blue" id="E0_slot_1_action_5_f_2" vehsPerHour="1" from="E0" to="E2" begin="3300" end="3600"/>
  <flow type="DEFAULT_VEHTYPE" color="yellow" id="-E1_slot_1_action_0_f_0" vehsPerHour="287" from="-E1" to="E3" begin="1800" end="2100"/>
  <flow type="DEFAULT_VEHTYPE" color="yellow" id="-E1_slot_1_action_1_f_0" vehsPerHour="287" from="-E1" to="E3" begin="2100" end="2400"/>
  <flow type="DEFAULT_VEHTYPE" color="yellow" id="-E1_slot_1_action_2_f_0" vehsPerHour="287" from="-E1" to="E3" begin="2400" end="2700"/>
  <flow type="DEFAULT_VEHTYPE" color="yellow" id="-E1_slot_1_action_3_f_0" vehsPerHour="287" from="-E1" to="E3" begin="2700" end="3000"/>
  <flow type="DEFAULT_VEHTYPE" color="yellow" id="-E1_slot_1_action_4_f_0" vehsPerHour="287" from="-E1" to="E3" begin="3000" end="3300"/>
  <flow type="DEFAULT_VEHTYPE" color="yellow" id="-E1_slot_1_action_5_f_0" vehsPerHour="287" from="-E1" to="E3" begin="3300" end="3600"/>
  <flow type="DEFAULT_PEDTYPE" color="magenta" id="-E1_slot_1_action_0_f_1" vehsPerHour="1" from="-E1" to="E3" begin="1800" end="2100"/>
  <flow type="DEFAULT_PEDTYPE" color="magenta" id="-E1_slot_1_action_1_f_1" vehsPerHour="1" from="-E1" to="E3" begin="2100" end="2400"/>
  <flow type="DEFAULT_PEDTYPE" color="magenta" id="-E1_slot_1_action_2_f_1" vehsPerHour="1" from="-E1" to="E3" begin="2400" end="2700"/>
  <flow type="DEFAULT_PEDTYPE" color="magenta" id="-E1_slot_1_action_3_f_1" vehsPerHour="1" from="-E1" to="E3" begin="2700" end="3000"/>
  <flow type="DEFAULT_PEDTYPE" color="magenta" id="-E1_slot_1_action_4_f_1" vehsPerHour="1" from="-E1" to="E3" begin="3000" end="3300"/>
  <flow type="DEFAULT_PEDTYPE" color="magenta" id="-E1_slot_1_action_5_f_1" vehsPerHour="1" from="-E1" to="E3" begin="3300" end="3600"/>
  <flow type="DEFAULT_BIKETYPE" color="blue" id="-E1_slot_1_action_0_f_2" vehsPerHour="1" from="-E1" to="E3" begin="1800" end="2100"/>
  <flow type="DEFAULT_BIKETYPE" color="blue" id="-E1_slot_1_action_1_f_2" vehsPerHour="1" from="-E1" to="E3" begin="2100" end="2400"/>
  <flow type="DEFAULT_BIKETYPE" color="blue" id="-E1_slot_1_action_2_f_2" vehsPerHour="1" from="-E1" to="E3" begin="2400" end="2700"/>
  <flow type="DEFAULT_BIKETYPE" color="blue" id="-E1_slot_1_action_3_f_2" vehsPerHour="1" from="-E1" to="E3" begin="2700" end="3000"/>
  <flow type="DEFAULT_BIKETYPE" color="blue" id="-E1_slot_1_action_4_f_2" vehsPerHour="1" from="-E1" to="E3" begin="3000" end="3300"/>
  <flow type="DEFAULT_BIKETYPE" color="blue" id="-E1_slot_1_action_5_f_2" vehsPerHour="1" from="-E1" to="E3" begin="3300" end="3600"/>
  <flow type="DEFAULT_VEHTYPE" color="yellow" id="-E2_slot_1_action_0_f_0" vehsPerHour="287" from="-E2" to="-E0" begin="1800" end="2100"/>
  <flow type="DEFAULT_VEHTYPE" color="yellow" id="-E2_slot_1_action_1_f_0" vehsPerHour="287" from="-E2" to="-E0" begin="2100" end="2400"/>
  <flow type="DEFAULT_VEHTYPE" color="yellow" id="-E2_slot_1_action_2_f_0" vehsPerHour="287" from="-E2" to="-E0" begin="2400" end="2700"/>
  <flow type="DEFAULT_VEHTYPE" color="yellow" id="-E2_slot_1_action_3_f_0" vehsPerHour="287" from="-E2" to="-E0" begin="2700" end="3000"/>
  <flow type="DEFAULT_VEHTYPE" color="yellow" id="-E2_slot_1_action_4_f_0" vehsPerHour="287" from="-E2" to="-E0" begin="3000" end="3300"/>
  <flow type="DEFAULT_VEHTYPE" color="yellow" id="-E2_slot_1_action_5_f_0" vehsPerHour="287" from="-E2" to="-E0" begin="3300" end="3600"/>
  <flow type="DEFAULT_PEDTYPE" color="magenta" id="-E2_slot_1_action_0_f_1" vehsPerHour="1" from="-E2" to="-E0" begin="1800" end="2100"/>
  <flow type="DEFAULT_PEDTYPE" color="magenta" id="-E2_slot_1_action_1_f_1" vehsPerHour="1" from="-E2" to="-E0" begin="2100" end="2400"/>
  <flow type="DEFAULT_PEDTYPE" color="magenta" id="-E2_slot_1_action_2_f_1" vehsPerHour="1" from="-E2" to="-E0" begin="2400" end="2700"/>
  <flow type="DEFAULT_PEDTYPE" color="magenta" id="-E2_slot_1_action_3_f_1" vehsPerHour="1" from="-E2" to="-E0" begin="2700" end="3000"/>
  <flow type="DEFAULT_PEDTYPE" color="magenta" id="-E2_slot_1_action_4_f_1" vehsPerHour="1" from="-E2" to="-E0" begin="3000" end="3300"/>
  <flow type="DEFAULT_PEDTYPE" color="magenta" id="-E2_slot_1_action_5_f_1" vehsPerHour="1" from="-E2" to="-E0" begin="3300" end="3600"/>
  <flow type="DEFAULT_BIKETYPE" color="blue" id="-E2_slot_1_action_0_f_2" vehsPerHour="1" from="-E2" to="-E0" begin="1800" end="2100"/>
  <flow type="DEFAULT_BIKETYPE" color="blue" id="-E2_slot_1_action_1_f_2" vehsPerHour="1" from="-E2" to="-E0" begin="2100" end="2400"/>
  <flow type="DEFAULT_BIKETYPE" color="blue" id="-E2_slot_1_action_2_f_2" vehsPerHour="1" from="-E2" to="-E0" begin="2400" end="2700"/>
  <flow type="DEFAULT_BIKETYPE" color="blue" id="-E2_slot_1_action_3_f_2" vehsPerHour="1" from="-E2" to="-E0" begin="2700" end="3000"/>
  <flow type="DEFAULT_BIKETYPE" color="blue" id="-E2_slot_1_action_4_f_2" vehsPerHour="1" from="-E2" to="-E0" begin="3000" end="3300"/>
  <flow type="DEFAULT_BIKETYPE" color="blue" id="-E2_slot_1_action_5_f_2" vehsPerHour="1" from="-E2" to="-E0" begin="3300" end="3600"/>
  <flow type="DEFAULT_VEHTYPE" color="yellow" id="-E3_slot_1_action_0_f_0" vehsPerHour="287" from="-E3" to="E1" begin="1800" end="2100"/>
  <flow type="DEFAULT_VEHTYPE" color="yellow" id="-E3_slot_1_action_1_f_0" vehsPerHour="287" from="-E3" to="E1" begin="2100" end="2400"/>
  <flow type="DEFAULT_VEHTYPE" color="yellow" id="-E3_slot_1_action_2_f_0" vehsPerHour="287" from="-E3" to="E1" begin="2400" end="2700"/>
  <flow type="DEFAULT_VEHTYPE" color="yellow" id="-E3_slot_1_action_3_f_0" vehsPerHour="287" from="-E3" to="E1" begin="2700" end="3000"/>
  <flow type="DEFAULT_VEHTYPE" color="yellow" id="-E3_slot_1_action_4_f_0" vehsPerHour="287" from="-E3" to="E1" begin="3000" end="3300"/>
  <flow type="DEFAULT_VEHTYPE" color="yellow" id="-E3_slot_1_action_5_f_0" vehsPerHour="287" from="-E3" to="E1" begin="3300" end="3600"/>
  <flow type="DEFAULT_PEDTYPE" color="magenta" id="-E3_slot_1_action_0_f_1" vehsPerHour="1" from="-E3" to="E1" begin="1800" end="2100"/>
  <flow type="DEFAULT_PEDTYPE" color="magenta" id="-E3_slot_1_action_1_f_1" vehsPerHour="1" from="-E3" to="E1" begin="2100" end="2400"/>
  <flow type="DEFAULT_PEDTYPE" color="magenta" id="-E3_slot_1_action_2_f_1" vehsPerHour="1" from="-E3" to="E1" begin="2400" end="2700"/>
  <flow type="DEFAULT_PEDTYPE" color="magenta" id="-E3_slot_1_action_3_f_1" vehsPerHour="1" from="-E3" to="E1" begin="2700" end="3000"/>
  <flow type="DEFAULT_PEDTYPE" color="magenta" id="-E3_slot_1_action_4_f_1" vehsPerHour="1" from="-E3" to="E1" begin="3000" end="3300"/>
  <flow type="DEFAULT_PEDTYPE" color="magenta" id="-E3_slot_1_action_5_f_1" vehsPerHour="1" from="-E3" to="E1" begin="3300" end="3600"/>
  <flow type="DEFAULT_BIKETYPE" color="blue" id="-E3_slot_1_action_0_f_2" vehsPerHour="1" from="-E3" to="E1" begin="1800" end="2100"/>
  <flow type="DEFAULT_BIKETYPE" color="blue" id="-E3_slot_1_action_1_f_2" vehsPerHour="1" from="-E3" to="E1" begin="2100" end="2400"/>
  <flow type="DEFAULT_BIKETYPE" color="blue" id="-E3_slot_1_action_2_f_2" vehsPerHour="1" from="-E3" to="E1" begin="2400" end="2700"/>
  <flow type="DEFAULT_BIKETYPE" color="blue" id="-E3_slot_1_action_3_f_2" vehsPerHour="1" from="-E3" to="E1" begin="2700" end="3000"/>
  <flow type="DEFAULT_BIKETYPE" color="blue" id="-E3_slot_1_action_4_f_2" vehsPerHour="1" from="-E3" to="E1" begin="3000" end="3300"/>
  <flow type="DEFAULT_BIKETYPE" color="blue" id="-E3_slot_1_action_5_f_2" vehsPerHour="1" from="-E3" to="E1" begin="3300" end="3600"/>
  <flow type="DEFAULT_VEHTYPE" color="yellow" id="E0_slot_2_action_0_f_0" vehsPerHour="301" from="E0" to="E2" begin="3600" end="3900"/>
  <flow type="DEFAULT_VEHTYPE" color="yellow" id="E0_slot_2_action_1_f_0" vehsPerHour="301" from="E0" to="E2" begin="3900" end="4200"/>
  <flow type="DEFAULT_VEHTYPE" color="yellow" id="E0_slot_2_action_2_f_0" vehsPerHour="301" from="E0" to="E2" begin="4200" end="4500"/>
  <flow type="DEFAULT_VEHTYPE" color="yellow" id="E0_slot_2_action_3_f_0" vehsPerHour="301" from="E0" to="E2" begin="4500" end="4800"/>
  <flow type="DEFAULT_VEHTYPE" color="yellow" id="E0_slot_2_action_4_f_0" vehsPerHour="301" from="E0" to="E2" begin="4800" end="5100"/>
  <flow type="DEFAULT_VEHTYPE" color="yellow" id="E0_slot_2_action_5_f_0" vehsPerHour="301" from="E0" to="E2" begin="5100" end="5400"/>
  <flow type="DEFAULT_PEDTYPE" color="magenta" id="E0_slot_2_action_0_f_1" vehsPerHour="1" from="E0" to="E2" begin="3600" end="3900"/>
  <flow type="DEFAULT_PEDTYPE" color="magenta" id="E0_slot_2_action_1_f_1" vehsPerHour="1" from="E0" to="E2" begin="3900" end="4200"/>
  <flow type="DEFAULT_PEDTYPE" color="magenta" id="E0_slot_2_action_2_f_1" vehsPerHour="1" from="E0" to="E2" begin="4200" end="4500"/>
  <flow type="DEFAULT_PEDTYPE" color="magenta" id="E0_slot_2_action_3_f_1" vehsPerHour="1" from="E0" to="E2" begin="4500" end="4800"/>
  <flow type="DEFAULT_PEDTYPE" color="magenta" id="E0_slot_2_action_4_f_1" vehsPerHour="1" from="E0" to="E2" begin="4800" end="5100"/>
  <flow type="DEFAULT_PEDTYPE" color="magenta" id="E0_slot_2_action_5_f_1" vehsPerHour="1" from="E0" to="E2" begin="5100" end="5400"/>
  <flow type="DEFAULT_BIKETYPE" color="blue" id="E0_slot_2_action_0_f_2" vehsPerHour="1" from="E0" to="E2" begin="3600" end="3900"/>
  <flow type="DEFAULT_BIKETYPE" color="blue" id="E0_slot_2_action_1_f_2" vehsPerHour="1" from="E0" to="E2" begin="3900" end="4200"/>
  <flow type="DEFAULT_BIKETYPE" color="blue" id="E0_slot_2_action_2_f_2" vehsPerHour="1" from="E0" to="E2" begin="4200" end="4500"/>
  <flow type="DEFAULT_BIKETYPE" color="blue" id="E0_slot_2_action_3_f_2" vehsPerHour="1" from="E0" to="E2" begin="4500" end="4800"/>
  <flow type="DEFAULT_BIKETYPE" color="blue" id="E0_slot_2_action_4_f_2" vehsPerHour="1" from="E0" to="E2" begin="4800" end="5100"/>
  <flow type="DEFAULT_BIKETYPE" color="blue" id="E0_slot_2_action_5_f_2" vehsPerHour="1" from="E0" to="E2" begin="5100" end="5400"/>
  <flow type="DEFAULT_VEHTYPE" color="yellow" id="-E1_slot_2_action_0_f_0" vehsPerHour="301" from="-E1" to="E3" begin="3600" end="3900"/>
  <flow type="DEFAULT_VEHTYPE" color="yellow" id="-E1_slot_2_action_1_f_0" vehsPerHour="301" from="-E1" to="E3" begin="3900" end="4200"/>
  <flow type="DEFAULT_VEHTYPE" color="yellow" id="-E1_slot_2_action_2_f_0" vehsPerHour="301" from="-E1" to="E3" begin="4200" end="4500"/>
  <flow type="DEFAULT_VEHTYPE" color="yellow" id="-E1_slot_2_action_3_f_0" vehsPerHour="301" from="-E1" to="E3" begin="4500" end="4800"/>
  <flow type="DEFAULT_VEHTYPE" color="yellow" id="-E1_slot_2_action_4_f_0" vehsPerHour="301" from="-E1" to="E3" begin="4800" end="5100"/>
  <flow type="DEFAULT_VEHTYPE" color="yellow" id="-E1_slot_2_action_5_f_0" vehsPerHour="301" from="-E1" to="E3" begin="5100" end="5400"/>
  <flow type="DEFAULT_PEDTYPE" color="magenta" id="-E1_slot_2_action_0_f_1" vehsPerHour="1" from="-E1" to="E3" begin="3600" end="3900"/>
  <flow type="DEFAULT_PEDTYPE" color="magenta" id="-E1_slot_2_action_1_f_1" vehsPerHour="1" from="-E1" to="E3" begin="3900" end="4200"/>
  <flow type="DEFAULT_PEDTYPE" color="magenta" id="-E1_slot_2_action_2_f_1" vehsPerHour="1" from="-E1" to="E3" begin="4200" end="4500"/>
  <flow type="DEFAULT_PEDTYPE" color="magenta" id="-E1_slot_2_action_3_f_1" vehsPerHour="1" from="-E1" to="E3" begin="4500" end="4800"/>
  <flow type="DEFAULT_PEDTYPE" color="magenta" id="-E1_slot_2_action_4_f_1" vehsPerHour="1" from="-E1" to="E3" begin="4800" end="5100"/>
  <flow type="DEFAULT_PEDTYPE" color="magenta" id="-E1_slot_2_action_5_f_1" vehsPerHour="1" from="-E1" to="E3" begin="5100" end="5400"/>
  <flow type="DEFAULT_BIKETYPE" color="blue" id="-E1_slot_2_action_0_f_2" vehsPerHour="1" from="-E1" to="E3" begin="3600" end="3900"/>
  <flow type="DEFAULT_BIKETYPE" color="blue" id="-E1_slot_2_action_1_f_2" vehsPerHour="1" from="-E1" to="E3" begin="3900" end="4200"/>
  <flow type="DEFAULT_BIKETYPE" color="blue" id="-E1_slot_2_action_2_f_2" vehsPerHour="1" from="-E1" to="E3" begin="4200" end="4500"/>
  <flow type="DEFAULT_BIKETYPE" color="blue" id="-E1_slot_2_action_3_f_2" vehsPerHour="1" from="-E1" to="E3" begin="4500" end="4800"/>
  <flow type="DEFAULT_BIKETYPE" color="blue" id="-E1_slot_2_action_4_f_2" vehsPerHour="1" from="-E1" to="E3" begin="4800" end="5100"/>
  <flow type="DEFAULT_BIKETYPE" color="blue" id="-E1_slot_2_action_5_f_2" vehsPerHour="1" from="-E1" to="E3" begin="5100" end="5400"/>
  <flow type="DEFAULT_VEHTYPE" color="yellow" id="-E2_slot_2_action_0_f_0" vehsPerHour="301" from="-E2" to="-E0" begin="3600" end="3900"/>
  <flow type="DEFAULT_VEHTYPE" color="yellow" id="-E2_slot_2_action_1_f_0" vehsPerHour="301" from="-E2" to="-E0" begin="3900" end="4200"/>
  <flow type="DEFAULT_VEHTYPE" color="yellow" id="-E2_slot_2_action_2_f_0" vehsPerHour="301" from="-E2" to="-E0" begin="4200" end="4500"/>
  <flow type="DEFAULT_VEHTYPE" color="yellow" id="-E2_slot_2_action_3_f_0" vehsPerHour="301" from="-E2" to="-E0" begin="4500" end="4800"/>
  <flow type="DEFAULT_VEHTYPE" color="yellow" id="-E2_slot_2_action_4_f_0" vehsPerHour="301" from="-E2" to="-E0" begin="4800" end="5100"/>
  <flow type="DEFAULT_VEHTYPE" color="yellow" id="-E2_slot_2_action_5_f_0" vehsPerHour="301" from="-E2" to="-E0" begin="5100" end="5400"/>
  <flow type="DEFAULT_PEDTYPE" color="magenta" id="-E2_slot_2_action_0_f_1" vehsPerHour="1" from="-E2" to="-E0" begin="3600" end="3900"/>
  <flow type="DEFAULT_PEDTYPE" color="magenta" id="-E2_slot_2_action_1_f_1" vehsPerHour="1" from="-E2" to="-E0" begin="3900" end="4200"/>
  <flow type="DEFAULT_PEDTYPE" color="magenta" id="-E2_slot_2_action_2_f_1" vehsPerHour="1" from="-E2" to="-E0" begin="4200" end="4500"/>
  <flow type="DEFAULT_PEDTYPE" color="magenta" id="-E2_slot_2_action_3_f_1" vehsPerHour="1" from="-E2" to="-E0" begin="4500" end="4800"/>
  <flow type="DEFAULT_PEDTYPE" color="magenta" id="-E2_slot_2_action_4_f_1" vehsPerHour="1" from="-E2" to="-E0" begin="4800" end="5100"/>
  <flow type="DEFAULT_PEDTYPE" color="magenta" id="-E2_slot_2_action_5_f_1" vehsPerHour="1" from="-E2" to="-E0" begin="5100" end="5400"/>
  <flow type="DEFAULT_BIKETYPE" color="blue" id="-E2_slot_2_action_0_f_2" vehsPerHour="1" from="-E2" to="-E0" begin="3600" end="3900"/>
  <flow type="DEFAULT_BIKETYPE" color="blue" id="-E2_slot_2_action_1_f_2" vehsPerHour="1" from="-E2" to="-E0" begin="3900" end="4200"/>
  <flow type="DEFAULT_BIKETYPE" color="blue" id="-E2_slot_2_action_2_f_2" vehsPerHour="1" from="-E2" to="-E0" begin="4200" end="4500"/>
  <flow type="DEFAULT_BIKETYPE" color="blue" id="-E2_slot_2_action_3_f_2" vehsPerHour="1" from="-E2" to="-E0" begin="4500" end="4800"/>
  <flow type="DEFAULT_BIKETYPE" color="blue" id="-E2_slot_2_action_4_f_2" vehsPerHour="1" from="-E2" to="-E0" begin="4800" end="5100"/>
  <flow type="DEFAULT_BIKETYPE" color="blue" id="-E2_slot_2_action_5_f_2" vehsPerHour="1" from="-E2" to="-E0" begin="5100" end="5400"/>
  <flow type="DEFAULT_VEHTYPE" color="yellow" id="-E3_slot_2_action_0_f_0" vehsPerHour="301" from="-E3" to="E1" begin="3600" end="3900"/>
  <flow type="DEFAULT_VEHTYPE" color="yellow" id="-E3_slot_2_action_1_f_0" vehsPerHour="301" from="-E3" to="E1" begin="3900" end="4200"/>
  <flow type="DEFAULT_VEHTYPE" color="yellow" id="-E3_slot_2_action_2_f_0" vehsPerHour="301" from="-E3" to="E1" begin="4200" end="4500"/>
  <flow type="DEFAULT_VEHTYPE" color="yellow" id="-E3_slot_2_action_3_f_0" vehsPerHour="301" from="-E3" to="E1" begin="4500" end="4800"/>
  <flow type="DEFAULT_VEHTYPE" color="yellow" id="-E3_slot_2_action_4_f_0" vehsPerHour="301" from="-E3" to="E1" begin="4800" end="5100"/>
  <flow type="DEFAULT_VEHTYPE" color="yellow" id="-E3_slot_2_action_5_f_0" vehsPerHour="301" from="-E3" to="E1" begin="5100" end="5400"/>
  <flow type="DEFAULT_PEDTYPE" color="magenta" id="-E3_slot_2_action_0_f_1" vehsPerHour="1" from="-E3" to="E1" begin="3600" end="3900"/>
  <flow type="DEFAULT_PEDTYPE" color="magenta" id="-E3_slot_2_action_1_f_1" vehsPerHour="1" from="-E3" to="E1" begin="3900" end="4200"/>
  <flow type="DEFAULT_PEDTYPE" color="magenta" id="-E3_slot_2_action_2_f_1" vehsPerHour="1" from="-E3" to="E1" begin="4200" end="4500"/>
  <flow type="DEFAULT_PEDTYPE" color="magenta" id="-E3_slot_2_action_3_f_1" vehsPerHour="1" from="-E3" to="E1" begin="4500" end="4800"/>
  <flow type="DEFAULT_PEDTYPE" color="magenta" id="-E3_slot_2_action_4_f_1" vehsPerHour="1" from="-E3" to="E1" begin="4800" end="5100"/>
  <flow type="DEFAULT_PEDTYPE" color="magenta" id="-E3_slot_2_action_5_f_1" vehsPerHour="1" from="-E3" to="E1" begin="5100" end="5400"/>
  <flow type="DEFAULT_BIKETYPE" color="blue" id="-E3_slot_2_action_0_f_2" vehsPerHour="1" from="-E3" to="E1" begin="3600" end="3900"/>
  <flow type="DEFAULT_BIKETYPE" color="blue" id="-E3_slot_2_action_1_f_2" vehsPerHour="1" from="-E3" to="E1" begin="3900" end="4200"/>
  <flow type="DEFAULT_BIKETYPE" color="blue" id="-E3_slot_2_action_2_f_2" vehsPerHour="1" from="-E3" to="E1" begin="4200" end="4500"/>
  <flow type="DEFAULT_BIKETYPE" color="blue" id="-E3_slot_2_action_3_f_2" vehsPerHour="1" from="-E3" to="E1" begin="4500" end="4800"/>
  <flow type="DEFAULT_BIKETYPE" color="blue" id="-E3_slot_2_action_4_f_2" vehsPerHour="1" from="-E3" to="E1" begin="4800" end="5100"/>
  <flow type="DEFAULT_BIKETYPE" color="blue" id="-E3_slot_2_action_5_f_2" vehsPerHour="1" from="-E3" to="E1" begin="5100" end="5400"/>
  <flow type="DEFAULT_VEHTYPE" color="yellow" id="E0_slot_3_action_0_f_0" vehsPerHour="323" from="E0" to="E2" begin="5400" end="5700"/>
  <flow type="DEFAULT_VEHTYPE" color="yellow" id="E0_slot_3_action_1_f_0" vehsPerHour="323" from="E0" to="E2" begin="5700" end="6000"/>
  <flow type="DEFAULT_VEHTYPE" color="yellow" id="E0_slot_3_action_2_f_0" vehsPerHour="323" from="E0" to="E2" begin="6000" end="6300"/>
  <flow type="DEFAULT_VEHTYPE" color="yellow" id="E0_slot_3_action_3_f_0" vehsPerHour="323" from="E0" to="E2" begin="6300" end="6600"/>