<?xml version="1.0" encoding="UTF-8"?>

<!-- generated on 2023-02-10 16:52:33 by Eclipse SUMO netedit Version 1.15.0
<configuration xmlns:xsi="http://www.w3.org/2001/XMLSchema-instance" xsi:noNamespaceSchemaLocation="http://sumo.dlr.de/xsd/netconvertConfiguration.xsd">

    <input>
        <sumo-net-file value="C:\D\SUMO\MARL\multiagentRL\gym_sumo\envs\sumo_configs\intersection.net.xml"/>
    </input>

    <output>
        <output-file value="C:\D\SUMO\MARL\multiagentRL\gym_sumo\envs\sumo_configs\intersection.net.xml"/>
    </output>

    <processing>
        <geometry.min-radius.fix.railways value="false"/>
        <geometry.max-grade.fix value="false"/>
        <offset.disable-normalization value="true"/>
        <lefthand value="0"/>
    </processing>

    <junctions>
        <no-turnarounds value="true"/>
        <junctions.corner-detail value="5"/>
        <junctions.limit-turn-speed value="5.50"/>
        <rectangular-lane-cut value="0"/>
    </junctions>

    <pedestrian>
        <walkingareas value="0"/>
    </pedestrian>

</configuration>
-->

<net version="1.9" junctionCornerDetail="5" limitTurnSpeed="5.50" xmlns:xsi="http://www.w3.org/2001/XMLSchema-instance" xsi:noNamespaceSchemaLocation="http://sumo.dlr.de/xsd/net_file.xsd">

    <location netOffset="0.00,0.00" convBoundary="-39.47,-28.16,149.85,120.79" origBoundary="-10000000000.00,-10000000000.00,10000000000.00,10000000000.00" projParameter="!"/>

    <edge id=":J1_0" function="internal">
        <lane id=":J1_0_0" index="0" allow="bicycle" speed="5.00" length="6.23" width="1.50" shape="76.59,57.38 74.95,57.61 73.77,58.35 73.05,59.58 72.80,61.32"/>
    </edge>
    <edge id=":J1_1" function="internal">
        <lane id=":J1_1_0" index="0" allow="bicycle" speed="5.00" length="28.25" width="1.50" shape="76.59,57.38 48.35,57.36"/>
    </edge>
    <edge id=":J1_2" function="internal">
        <lane id=":J1_2_0" index="0" allow="bicycle" speed="5.00" length="23.33" width="1.50" shape="76.59,57.38 65.92,55.75 58.32,51.10 56.47,47.98"/>
    </edge>
    <edge id=":J1_3" function="internal">
        <lane id=":J1_3_0" index="0" allow="passenger" speed="8.77" length="8.19" width="9.60" shape="76.65,51.84 72.57,52.39 69.65,54.14 69.31,54.71"/>
    </edge>
    <edge id=":J1_4" function="internal">
        <lane id=":J1_4_0" index="0" allow="passenger" speed="13.89" length="28.36" width="9.60" shape="76.65,51.84 48.30,51.81"/>
    </edge>
    <edge id=":J1_5" function="internal">
        <lane id=":J1_5_0" index="0" allow="passenger" speed="11.61" length="12.06" width="9.60" shape="76.65,51.84 69.96,50.07 65.83,47.03"/>
    </edge>
    <edge id=":J1_28" function="internal">
        <lane id=":J1_28_0" index="0" allow="bicycle" speed="5.00" length="16.04" width="1.50" shape="56.47,47.98 53.79,43.44 52.33,32.77"/>
    </edge>
    <edge id=":J1_29" function="internal">
        <lane id=":J1_29_0" index="0" allow="passenger" speed="8.77" length="6.99" width="9.60" shape="69.31,54.71 67.87,57.10 67.25,61.26"/>
    </edge>
    <edge id=":J1_30" function="internal">
        <lane id=":J1_30_0" index="0" allow="passenger" speed="11.61" length="16.79" width="9.60" shape="65.83,47.03 63.91,45.62 59.54,39.52 57.88,32.81"/>
    </edge>
    <edge id=":J1_6" function="internal">
        <lane id=":J1_6_0" index="0" allow="bicycle" speed="5.00" length="6.10" width="1.50" shape="73.03,32.90 73.26,34.54 73.97,35.72 75.15,36.43 76.82,36.69"/>
    </edge>
    <edge id=":J1_7" function="internal">
        <lane id=":J1_7_0" index="0" allow="bicycle" speed="5.00" length="28.41" width="1.50" shape="73.03,32.90 72.80,61.32"/>
    </edge>
    <edge id=":J1_8" function="internal">
        <lane id=":J1_8_0" index="0" allow="bicycle" speed="5.00" length="5.27" width="1.50" shape="73.03,32.90 72.24,38.11"/>
    </edge>
    <edge id=":J1_9" function="internal">
        <lane id=":J1_9_0" index="0" allow="passenger" speed="8.75" length="8.12" width="9.60" shape="67.48,32.87 68.04,36.93 69.77,39.84 70.31,40.17"/>
    </edge>
    <edge id=":J1_10" function="internal">
        <lane id=":J1_10_0" index="0" allow="passenger" speed="13.89" length="28.39" width="9.60" shape="67.48,32.87 67.25,61.26"/>
    </edge>
    <edge id=":J1_11" function="internal">
        <lane id=":J1_11_0" index="0" allow="passenger" speed="11.69" length="8.57" width="9.60" shape="67.48,32.87 65.71,39.57 64.73,40.89"/>
    </edge>
    <edge id=":J1_31" function="internal">
        <lane id=":J1_31_0" index="0" allow="bicycle" speed="5.00" length="34.22" width="1.50" shape="72.24,38.11 71.43,43.52 66.78,51.13 59.09,55.75 48.35,57.36"/>
    </edge>
    <edge id=":J1_32" function="internal">
        <lane id=":J1_32_0" index="0" allow="passenger" speed="8.75" length="6.90" width="9.60" shape="70.31,40.17 72.68,41.61 76.76,42.24"/>
    </edge>
    <edge id=":J1_33" function="internal">
        <lane id=":J1_33_0" index="0" allow="passenger" speed="11.69" length="20.47" width="9.60" shape="64.73,40.89 61.20,45.64 55.04,50.07 48.30,51.81"/>
    </edge>
    <edge id=":J1_12" function="internal">
        <lane id=":J1_12_0" index="0" allow="pedestrian" speed="1.50" length="4.09" width="1.50" shape="48.15,35.16 49.32,35.00 50.15,34.55 50.66,33.80 50.83,32.76"/>
    </edge>
    <edge id=":J1_13" function="internal">
        <lane id=":J1_13_0" index="0" allow="pedestrian" speed="1.50" length="28.70" width="1.50" shape="48.15,35.16 76.84,35.19"/>
        <lane id=":J1_13_1" index="1" allow="pedestrian" speed="3.25" length="28.70" width="1.50" shape="48.15,35.16 76.82,36.69"/>
    </edge>
    <edge id=":J1_15" function="internal">
        <lane id=":J1_15_0" index="0" allow="bicycle" speed="5.00" length="3.69" width="1.50" shape="48.16,36.66 49.98,36.40 51.28,35.67 51.47,35.37"/>
    </edge>
    <edge id=":J1_16" function="internal">
        <lane id=":J1_16_0" index="0" allow="bicycle" speed="3.25" length="28.69" width="1.50" shape="48.16,36.66 76.84,35.19"/>
        <lane id=":J1_16_1" index="1" allow="bicycle" speed="5.00" length="28.69" width="1.50" shape="48.16,36.66 76.82,36.69"/>
    </edge>
    <edge id=":J1_18" function="internal">
        <lane id=":J1_18_0" index="0" allow="bicycle" speed="5.00" length="23.85" width="1.50" shape="48.16,36.66 59.03,38.12 66.76,42.71 68.74,46.05"/>
    </edge>
    <edge id=":J1_19" function="internal">
        <lane id=":J1_19_0" index="0" allow="passenger" speed="8.85" length="9.22" width="9.60" shape="48.21,42.21 52.42,41.59 55.43,39.82 56.21,38.57"/>
    </edge>
    <edge id=":J1_20" function="internal">
        <lane id=":J1_20_0" index="0" allow="passenger" speed="13.89" length="28.55" width="9.60" shape="48.21,42.21 76.76,42.24"/>
    </edge>
    <edge id=":J1_21" function="internal">
        <lane id=":J1_21_0" index="0" allow="passenger" speed="11.56" length="12.25" width="9.60" shape="48.21,42.21 54.95,43.90 59.23,47.02"/>
    </edge>
    <edge id=":J1_34" function="internal">
        <lane id=":J1_34_0" index="0" allow="bicycle" speed="5.00" length="2.79" width="1.50" shape="51.47,35.37 52.06,34.46 52.33,32.77"/>
    </edge>
    <edge id=":J1_35" function="internal">
        <lane id=":J1_35_0" index="0" allow="bicycle" speed="5.00" length="16.07" width="1.50" shape="68.74,46.05 71.35,50.44 72.80,61.32"/>
    </edge>
    <edge id=":J1_36" function="internal">
        <lane id=":J1_36_0" index="0" allow="passenger" speed="8.85" length="6.10" width="9.60" shape="56.21,38.57 57.25,36.89 57.88,32.81"/>
    </edge>
    <edge id=":J1_37" function="internal">
        <lane id=":J1_37_0" index="0" allow="passenger" speed="11.56" length="16.85" width="9.60" shape="59.23,47.02 61.10,48.37 65.56,54.52 67.25,61.26"/>
    </edge>
    <edge id=":J1_22" function="internal">
        <lane id=":J1_22_0" index="0" allow="bicycle" speed="5.00" length="6.08" width="1.50" shape="52.10,61.12 51.88,59.46 51.18,58.28 50.00,57.58 48.35,57.36"/>
    </edge>
    <edge id=":J1_23" function="internal">
        <lane id=":J1_23_0" index="0" allow="bicycle" speed="5.00" length="28.35" width="1.50" shape="52.10,61.12 52.33,32.77"/>
    </edge>
    <edge id=":J1_24" function="internal">
        <lane id=":J1_24_0" index="0" allow="bicycle" speed="5.00" length="5.29" width="1.50" shape="52.10,61.12 52.90,55.88"/>
    </edge>
    <edge id=":J1_25" function="internal">
        <lane id=":J1_25_0" index="0" allow="passenger" speed="8.72" length="8.20" width="9.60" shape="57.65,61.17 57.10,57.04 55.36,54.11 54.83,53.79"/>
    </edge>
    <edge id=":J1_26" function="internal">
        <lane id=":J1_26_0" index="0" allow="passenger" speed="13.89" length="28.36" width="9.60" shape="57.65,61.17 57.88,32.81"/>
    </edge>
    <edge id=":J1_27" function="internal">
        <lane id=":J1_27_0" index="0" allow="passenger" speed="11.62" length="8.78" width="9.60" shape="57.65,61.17 59.42,54.45 60.51,52.97"/>
    </edge>
    <edge id=":J1_38" function="internal">
        <lane id=":J1_38_0" index="0" allow="bicycle" speed="5.00" length="34.35" width="1.50" shape="52.90,55.88 53.74,50.33 58.40,42.66 66.10,38.11 76.82,36.69"/>
    </edge>
    <edge id=":J1_39" function="internal">
        <lane id=":J1_39_0" index="0" allow="passenger" speed="8.72" length="6.96" width="9.60" shape="54.83,53.79 52.42,52.36 48.30,51.81"/>
    </edge>
    <edge id=":J1_40" function="internal">
        <lane id=":J1_40_0" index="0" allow="passenger" speed="11.62" length="20.24" width="9.60" shape="60.51,52.97 63.90,48.33 70.04,43.90 76.76,42.24"/>
    </edge>
    <edge id=":J4_0" function="internal">
        <lane id=":J4_0_0" index="0" allow="passenger" speed="6.32" length="14.02" width="9.60" shape="58.27,-28.19 60.69,-31.78 63.10,-32.96 65.49,-31.74 67.87,-28.13"/>
    </edge>

    <edge id="-E0" from="J1" to="J0" priority="-1" length="100.00">
        <lane id="-E0_0" index="0" allow="pedestrian" speed="1.50" length="100.00" width="1.50" shape="48.36,58.86 -39.36,59.65"/>
        <lane id="-E0_1" index="1" allow="bicycle" speed="5.00" length="100.00" width="1.50" shape="48.35,57.36 -39.38,58.15"/>
        <lane id="-E0_2" index="2" allow="passenger" speed="13.89" length="100.00" width="9.60" shape="48.30,51.81 -39.43,52.60"/>
    </edge>
    <edge id="-E1" from="J2" to="J1" priority="-1" length="100.00">
        <lane id="-E1_0" index="0" allow="pedestrian" speed="1.50" length="100.00" width="1.50" shape="50.03,120.68 50.60,61.10"/>
        <lane id="-E1_1" index="1" allow="bicycle" speed="5.00" length="100.00" width="1.50" shape="51.53,120.69 52.10,61.12"/>
        <lane id="-E1_2" index="2" allow="passenger" speed="13.89" length="100.00" width="9.60" shape="57.08,120.74 57.65,61.17"/>
    </edge>
    <edge id="-E2" from="J3" to="J1" priority="-1" length="100.00">
        <lane id="-E2_0" index="0" allow="pedestrian" speed="1.50" length="100.00" width="1.50" shape="149.72,59.69 76.58,58.88"/>
        <lane id="-E2_1" index="1" allow="bicycle" speed="5.00" length="100.00" width="1.50" shape="149.74,58.19 76.59,57.38"/>
        <lane id="-E2_2" index="2" allow="passenger" speed="13.89" length="100.00" width="9.60" shape="149.80,52.64 76.65,51.84"/>
    </edge>
    <edge id="-E3" from="J4" to="J1" priority="-1" length="100.00">
        <lane id="-E3_0" index="0" allow="pedestrian" speed="1.50" length="100.00" width="1.50" shape="74.92,-28.08 74.53,32.91"/>
        <lane id="-E3_1" index="1" allow="bicycle" speed="5.00" length="100.00" width="1.50" shape="73.42,-28.09 73.03,32.90"/>
        <lane id="-E3_2" index="2" allow="passenger" speed="13.89" length="100.00" width="9.60" shape="67.87,-28.13 67.48,32.87"/>
    </edge>
    <edge id="E0" from="J0" to="J1" priority="-1" length="100.00">
        <lane id="E0_0" index="0" allow="pedestrian" speed="1.50" length="100.00" width="1.50" shape="-39.58,35.95 48.15,35.16"/>
        <lane id="E0_1" index="1" allow="bicycle" speed="5.00" length="100.00" width="1.50" shape="-39.56,37.45 48.16,36.66"/>
        <lane id="E0_2" index="2" allow="passenger" speed="13.89" length="100.00" width="9.60" shape="-39.51,43.00 48.21,42.21"/>
    </edge>
    <edge id="E1" from="J1" to="J2" priority="-1" length="100.00">
        <lane id="E1_0" index="0" allow="pedestrian" speed="1.50" length="100.00" width="1.50" shape="74.30,61.33 73.73,120.90"/>
        <lane id="E1_1" index="1" allow="bicycle" speed="5.00" length="100.00" width="1.50" shape="72.80,61.32 72.23,120.89"/>
        <lane id="E1_2" index="2" allow="passenger" speed="13.89" length="100.00" width="9.60" shape="67.25,61.26 66.68,120.84"/>
    </edge>
    <edge id="E2" from="J1" to="J3" priority="-1" length="100.00">
        <lane id="E2_0" index="0" allow="pedestrian bicycle" speed="1.50" length="100.00" width="1.50" shape="76.84,35.19 149.98,35.99"/>
        <lane id="E2_1" index="1" allow="pedestrian bicycle" speed="5.00" length="100.00" width="1.50" shape="76.82,36.69 149.96,37.49"/>
        <lane id="E2_2" index="2" allow="passenger bicycle" speed="13.89" length="100.00" width="9.60" shape="76.76,42.24 149.90,43.04"/>
    </edge>
    <edge id="E3" from="J1" to="J4" priority="-1" length="100.00">
        <lane id="E3_0" index="0" allow="pedestrian" speed="1.50" length="100.00" width="1.50" shape="50.83,32.76 51.22,-28.24"/>
        <lane id="E3_1" index="1" allow="bicycle" speed="5.00" length="100.00" width="1.50" shape="52.33,32.77 52.72,-28.23"/>
        <lane id="E3_2" index="2" allow="passenger" speed="13.89" length="100.00" width="9.60" shape="57.88,32.81 58.27,-28.19"/>
    </edge>

    <tlLogic id="J1" type="static" programID="0" offset="0">
        <phase duration="39" state="rrrrrrGGggGgrrrrrrrrrrGGggGg"/>
        <phase duration="3"  state="rrrrrryyyyyyrrrrrrrrrryyyyyy"/>
        <phase duration="3"  state="rrrrrrrrrrrrrrrrrrrrrrrrrrrr"/>
        <phase duration="39" state="GGggGgrrrrrrGgggGGggGgrrrrrr"/>
        <phase duration="3"  state="yyyyyyrrrrrryyyyyyyyyyrrrrrr"/>
        <phase duration="3"  state="rrrrrrrrrrrrrrrrrrrrrrrrrrrr"/>
    </tlLogic>

    <junction id="J0" type="dead_end" x="-39.47" y="47.80" incLanes="-E0_0 -E0_1 -E0_2" intLanes="" shape="-39.47,47.80 -39.36,60.40 -39.47,47.80"/>
    <junction id="J1" type="traffic_light" x="62.59" y="46.88" incLanes="-E2_0 -E2_1 -E2_2 -E3_0 -E3_1 -E3_2 E0_0 E0_1 E0_2 -E1_0 -E1_1 -E1_2" intLanes=":J1_0_0 :J1_1_0 :J1_28_0 :J1_29_0 :J1_4_0 :J1_30_0 :J1_6_0 :J1_7_0 :J1_31_0 :J1_32_0 :J1_10_0 :J1_33_0 :J1_12_0 :J1_13_0 :J1_13_1 :J1_34_0 :J1_16_0 :J1_16_1 :J1_35_0 :J1_36_0 :J1_20_0 :J1_37_0 :J1_22_0 :J1_23_0 :J1_38_0 :J1_39_0 :J1_26_0 :J1_40_0" shape="76.57,59.63 76.85,34.44 75.97,34.26 75.67,34.05 75.45,33.75 75.32,33.38 75.28,32.92 50.08,32.76 49.86,33.67 49.59,33.99 49.21,34.22 48.73,34.36 48.14,34.41 48.37,59.61 49.20,59.77 49.49,59.97 49.69,60.26 49.82,60.64 49.85,61.10 75.05,61.34 75.23,60.38 75.44,60.05 75.73,59.82 76.11,59.68">
        <request index="0"  response="0000000000000000000010000000" foes="0000000001000000000010000000" cont="0"/>
        <request index="1"  response="1111110000000000010110000000" foes="1111111001000000010110001000" cont="0"/>
        <request index="2"  response="1101101111111110110110010000" foes="1101101111111110110110011000" cont="1"/>
        <request index="3"  response="0000000000000000010010000110" foes="0000001001000000010010000110" cont="1"/>
        <request index="4"  response="1111100000000000110110000000" foes="1111101001000000110110000100" cont="0"/>
        <request index="5"  response="1101001111110110110110000000" foes="1101001111110110110110000000" cont="1"/>
        <request index="6"  response="0000000000000000000000000000" foes="0001000000110110000000000000" cont="0"/>
        <request index="7"  response="0000000001000000000000101100" foes="1001000101110110001000111111" cont="0"/>
        <request index="8"  response="0110111001000000010000100100" foes="1111111101110110011000110110" cont="1"/>
        <request index="9"  response="0000000000000000000110000000" foes="1001000100110110000110000000" cont="1"/>
        <request index="10" response="0000001001000000000000101100" foes="1001001101110110000100111110" cont="0"/>
        <request index="11" response="0110101001000000000000100100" foes="1111101101110110000000110100" cont="1"/>
        <request index="12" response="0000000000000000000000000000" foes="0000000000000000000000000000" cont="0"/>
        <request index="13" response="0100100000010000111111000000" foes="0100100010011000111111100100" cont="0"/>
        <request index="14" response="0101100000100000111111000000" foes="0101100010101000111111100100" cont="0"/>
        <request index="15" response="0000100000000110000000000000" foes="0000100000000110000000000100" cont="1"/>
        <request index="16" response="0100100000000000111111000000" foes="0100100010000010111111100100" cont="0"/>
        <request index="17" response="0101100000000000111111000000" foes="0101100010000100111111100100" cont="0"/>
        <request index="18" response="1101100100000000110110011011" foes="1101100110000000110110111111" cont="1"/>
        <request index="19" response="0100100001110110000000000000" foes="0100100001110110000000100100" cont="1"/>
        <request index="20" response="1101100000000000111110000000" foes="1101100001000000111110100100" cont="0"/>
        <request index="21" response="1101100000000000110100011010" foes="1101100000000000110100111110" cont="1"/>
        <request index="22" response="0000000000000000000000000000" foes="0000000000000000000100000010" cont="0"/>
        <request index="23" response="0000001011001000000000000100" foes="0010001111111110100100010110" cont="0"/>
        <request index="24" response="0100001001000000111111100100" foes="0110001101100100111111110110" cont="1"/>
        <request index="25" response="0001100000000000000000000000" foes="0001100000000000100100010010" cont="1"/>
        <request index="26" response="0000001011000000000000100100" foes="0001001111110110100100110110" cont="0"/>
        <request index="27" response="0000001001000000111110100100" foes="0000001101000000111110110110" cont="1"/>
        <param key="jmCrossingGap" value="3"/>
        <param key="jmIgnoreKeepClearTime" value="0"/>
    </junction>
    <junction id="J2" type="dead_end" x="61.88" y="120.79" incLanes="E1_0 E1_1 E1_2" intLanes="" shape="61.88,120.79 74.48,120.91 61.88,120.79"/>
    <junction id="J3" type="dead_end" x="149.85" y="47.84" incLanes="E2_0 E2_1 E2_2" intLanes="" shape="149.85,47.84 149.99,35.24 149.85,47.84"/>
    <junction id="J4" type="priority" x="63.07" y="-28.16" incLanes="E3_0 E3_1 E3_2" intLanes=":J4_0_0" shape="63.07,-28.16 50.47,-28.24 63.07,-28.16">
        <request index="0" response="0" foes="0" cont="0"/>
    </junction>

    <junction id=":J1_28_0" type="internal" x="56.47" y="47.98" incLanes=":J1_2_0 E0_0 E0_1 E0_2" intLanes=":J1_4_0 :J1_7_0 :J1_8_0 :J1_10_0 :J1_11_0 :J1_12_0 :J1_13_0 :J1_13_1 :J1_15_0 :J1_16_0 :J1_16_1 :J1_18_0 :J1_19_0 :J1_20_0 :J1_21_0 :J1_23_0 :J1_24_0 :J1_26_0 :J1_27_0"/>
    <junction id=":J1_29_0" type="internal" x="69.31" y="54.71" incLanes=":J1_3_0 -E2_1" intLanes=":J1_1_0 :J1_2_0 :J1_7_0 :J1_10_0 :J1_18_0 :J1_21_0"/>
    <junction id=":J1_30_0" type="internal" x="65.83" y="47.03" incLanes=":J1_5_0 E0_0 E0_1 E0_2" intLanes=":J1_7_0 :J1_8_0 :J1_10_0 :J1_11_0 :J1_12_0 :J1_13_0 :J1_13_1 :J1_15_0 :J1_16_0 :J1_16_1 :J1_18_0 :J1_19_0 :J1_20_0 :J1_21_0 :J1_23_0 :J1_24_0 :J1_26_0 :J1_27_0"/>
    <junction id=":J1_31_0" type="internal" x="72.24" y="38.11" incLanes=":J1_8_0 -E1_1 -E1_2" intLanes=":J1_1_0 :J1_2_0 :J1_4_0 :J1_5_0 :J1_10_0 :J1_13_0 :J1_13_1 :J1_16_0 :J1_16_1 :J1_18_0 :J1_20_0 :J1_21_0 :J1_22_0 :J1_23_0 :J1_24_0 :J1_25_0 :J1_26_0 :J1_27_0"/>
    <junction id=":J1_32_0" type="internal" x="70.31" y="40.17" incLanes=":J1_9_0 -E3_1" intLanes=":J1_7_0 :J1_8_0 :J1_13_0 :J1_13_1 :J1_16_0 :J1_16_1 :J1_20_0 :J1_24_0 :J1_27_0"/>
    <junction id=":J1_33_0" type="internal" x="64.73" y="40.89" incLanes=":J1_11_0 -E1_1 -E1_2" intLanes=":J1_1_0 :J1_2_0 :J1_4_0 :J1_5_0 :J1_13_0 :J1_13_1 :J1_16_0 :J1_16_1 :J1_18_0 :J1_20_0 :J1_21_0 :J1_22_0 :J1_23_0 :J1_24_0 :J1_25_0 :J1_26_0 :J1_27_0"/>
    <junction id=":J1_34_0" type="internal" x="51.47" y="35.37" incLanes=":J1_15_0 E0_0" intLanes=":J1_2_0 :J1_5_0 :J1_13_0 :J1_13_1 :J1_23_0 :J1_26_0"/>
    <junction id=":J1_35_0" type="internal" x="68.74" y="46.05" incLanes=":J1_18_0 -E2_1 -E2_2" intLanes=":J1_0_0 :J1_1_0 :J1_2_0 :J1_3_0 :J1_4_0 :J1_5_0 :J1_7_0 :J1_8_0 :J1_10_0 :J1_11_0 :J1_20_0 :J1_23_0 :J1_24_0 :J1_26_0 :J1_27_0"/>
    <junction id=":J1_36_0" type="internal" x="56.21" y="38.57" incLanes=":J1_19_0 E0_0 E0_1" intLanes=":J1_2_0 :J1_5_0 :J1_13_0 :J1_13_1 :J1_16_0 :J1_16_1 :J1_18_0 :J1_23_0 :J1_26_0"/>
    <junction id=":J1_37_0" type="internal" x="59.23" y="47.02" incLanes=":J1_21_0 -E2_1 -E2_2" intLanes=":J1_0_0 :J1_1_0 :J1_2_0 :J1_3_0 :J1_4_0 :J1_5_0 :J1_7_0 :J1_8_0 :J1_10_0 :J1_11_0 :J1_23_0 :J1_24_0 :J1_26_0 :J1_27_0"/>
    <junction id=":J1_38_0" type="internal" x="52.90" y="55.88" incLanes=":J1_24_0 -E3_1 -E3_2 :J1_11_0 :J1_8_0" intLanes=":J1_33_0 :J1_31_0 :J1_1_0 :J1_2_0 :J1_4_0 :J1_5_0 :J1_6_0 :J1_7_0 :J1_8_0 :J1_9_0 :J1_10_0 :J1_11_0 :J1_13_0 :J1_13_1 :J1_16_0 :J1_16_1 :J1_18_0 :J1_20_0 :J1_21_0 :J1_26_0"/>
    <junction id=":J1_39_0" type="internal" x="54.83" y="53.79" incLanes=":J1_25_0 -E1_1" intLanes=":J1_1_0 :J1_4_0 :J1_8_0 :J1_11_0 :J1_23_0 :J1_24_0"/>
    <junction id=":J1_40_0" type="internal" x="60.51" y="52.97" incLanes=":J1_27_0 -E3_1 -E3_2 :J1_11_0 :J1_8_0" intLanes=":J1_33_0 :J1_31_0 :J1_1_0 :J1_2_0 :J1_4_0 :J1_5_0 :J1_6_0 :J1_7_0 :J1_8_0 :J1_9_0 :J1_10_0 :J1_11_0 :J1_13_0 :J1_13_1 :J1_16_0 :J1_16_1 :J1_18_0 :J1_20_0 :J1_21_0"/>

    <connection from="-E1" to="-E0" fromLane="1" toLane="1" via=":J1_22_0" tl="J1" linkIndex="22" dir="r" state="O"/>
    <connection from="-E1" to="E3" fromLane="1" toLane="1" via=":J1_23_0" tl="J1" linkIndex="23" dir="s" state="O"/>
    <connection from="-E1" to="E2" fromLane="1" toLane="1" via=":J1_24_0" tl="J1" linkIndex="24" dir="l" state="o"/>
    <connection from="-E1" to="-E0" fromLane="2" toLane="2" via=":J1_25_0" tl="J1" linkIndex="25" dir="r" state="o"/>
    <connection from="-E1" to="E3" fromLane="2" toLane="2" via=":J1_26_0" tl="J1" linkIndex="26" dir="s" state="O"/>
    <connection from="-E1" to="E2" fromLane="2" toLane="2" via=":J1_27_0" tl="J1" linkIndex="27" dir="l" state="o"/>
    <connection from="-E2" to="E1" fromLane="1" toLane="1" via=":J1_0_0" tl="J1" linkIndex="0" dir="r" state="o"/>
    <connection from="-E2" to="-E0" fromLane="1" toLane="1" via=":J1_1_0" tl="J1" linkIndex="1" dir="s" state="o"/>
    <connection from="-E2" to="E3" fromLane="1" toLane="1" via=":J1_2_0" tl="J1" linkIndex="2" dir="l" state="o"/>
    <connection from="-E2" to="E1" fromLane="2" toLane="2" via=":J1_3_0" tl="J1" linkIndex="3" dir="r" state="o"/>
    <connection from="-E2" to="-E0" fromLane="2" toLane="2" via=":J1_4_0" tl="J1" linkIndex="4" dir="s" state="o"/>
    <connection from="-E2" to="E3" fromLane="2" toLane="2" via=":J1_5_0" tl="J1" linkIndex="5" dir="l" state="o"/>
    <connection from="-E3" to="E2" fromLane="1" toLane="1" via=":J1_6_0" tl="J1" linkIndex="6" dir="r" state="O"/>
    <connection from="-E3" to="E1" fromLane="1" toLane="1" via=":J1_7_0" tl="J1" linkIndex="7" dir="s" state="O"/>
    <connection from="-E3" to="-E0" fromLane="1" toLane="1" via=":J1_8_0" tl="J1" linkIndex="8" dir="l" state="o"/>
    <connection from="-E3" to="E2" fromLane="2" toLane="2" via=":J1_9_0" tl="J1" linkIndex="9" dir="r" state="o"/>
    <connection from="-E3" to="E1" fromLane="2" toLane="2" via=":J1_10_0" tl="J1" linkIndex="10" dir="s" state="O"/>
    <connection from="-E3" to="-E0" fromLane="2" toLane="2" via=":J1_11_0" tl="J1" linkIndex="11" dir="l" state="o"/>
    <connection from="E0" to="E3" fromLane="0" toLane="0" via=":J1_12_0" tl="J1" linkIndex="12" dir="r" state="O"/>
    <connection from="E0" to="E2" fromLane="0" toLane="0" via=":J1_13_0" tl="J1" linkIndex="13" dir="s" state="o"/>
    <connection from="E0" to="E2" fromLane="0" toLane="1" via=":J1_13_1" tl="J1" linkIndex="14" dir="s" state="o"/>
    <connection from="E0" to="E3" fromLane="1" toLane="1" via=":J1_15_0" tl="J1" linkIndex="15" dir="r" state="o"/>
    <connection from="E0" to="E2" fromLane="1" toLane="0" via=":J1_16_0" tl="J1" linkIndex="16" dir="s" state="o"/>
    <connection from="E0" to="E2" fromLane="1" toLane="1" via=":J1_16_1" tl="J1" linkIndex="17" dir="s" state="o"/>
    <connection from="E0" to="E1" fromLane="1" toLane="1" via=":J1_18_0" tl="J1" linkIndex="18" dir="l" state="o"/>
    <connection from="E0" to="E3" fromLane="2" toLane="2" via=":J1_19_0" tl="J1" linkIndex="19" dir="r" state="o"/>
    <connection from="E0" to="E2" fromLane="2" toLane="2" via=":J1_20_0" tl="J1" linkIndex="20" dir="s" state="o"/>
    <connection from="E0" to="E1" fromLane="2" toLane="2" via=":J1_21_0" tl="J1" linkIndex="21" dir="l" state="o"/>
    <connection from="E3" to="-E3" fromLane="2" toLane="2" via=":J4_0_0" dir="t" state="M"/>

    <connection from=":J1_0" to="E1" fromLane="0" toLane="1" dir="r" state="M"/>
    <connection from=":J1_1" to="-E0" fromLane="0" toLane="1" dir="s" state="M"/>
    <connection from=":J1_2" to="E3" fromLane="0" toLane="1" via=":J1_28_0" dir="l" state="m"/>
    <connection from=":J1_28" to="E3" fromLane="0" toLane="1" dir="l" state="M"/>
    <connection from=":J1_3" to="E1" fromLane="0" toLane="2" via=":J1_29_0" dir="r" state="m"/>
    <connection from=":J1_29" to="E1" fromLane="0" toLane="2" dir="r" state="M"/>
    <connection from=":J1_4" to="-E0" fromLane="0" toLane="2" dir="s" state="M"/>
    <connection from=":J1_5" to="E3" fromLane="0" toLane="2" via=":J1_30_0" dir="l" state="m"/>
    <connection from=":J1_30" to="E3" fromLane="0" toLane="2" dir="l" state="M"/>
    <connection from=":J1_6" to="E2" fromLane="0" toLane="1" dir="r" state="M"/>
    <connection from=":J1_7" to="E1" fromLane="0" toLane="1" dir="s" state="M"/>
    <connection from=":J1_8" to="-E0" fromLane="0" toLane="1" via=":J1_31_0" dir="l" state="m"/>
    <connection from=":J1_31" to="-E0" fromLane="0" toLane="1" dir="l" state="M"/>
    <connection from=":J1_9" to="E2" fromLane="0" toLane="2" via=":J1_32_0" dir="r" state="m"/>
    <connection from=":J1_32" to="E2" fromLane="0" toLane="2" dir="r" state="M"/>
    <connection from=":J1_10" to="E1" fromLane="0" toLane="2" dir="s" state="M"/>
    <connection from=":J1_11" to="-E0" fromLane="0" toLane="2" via=":J1_33_0" dir="l" state="m"/>
    <connection from=":J1_33" to="-E0" fromLane="0" toLane="2" dir="l" state="M"/>
    <connection from=":J1_12" to="E3" fromLane="0" toLane="0" dir="r" state="M"/>
    <connection from=":J1_13" to="E2" fromLane="0" toLane="0" dir="s" state="M"/>
    <connection from=":J1_13" to="E2" fromLane="1" toLane="1" dir="s" state="M"/>
    <connection from=":J1_15" to="E3" fromLane="0" toLane="1" via=":J1_34_0" dir="r" state="m"/>
    <connection from=":J1_34" to="E3" fromLane="0" toLane="1" dir="r" state="M"/>
    <connection from=":J1_16" to="E2" fromLane="0" toLane="0" dir="s" state="M"/>
    <connection from=":J1_16" to="E2" fromLane="1" toLane="1" dir="s" state="M"/>
    <connection from=":J1_18" to="E1" fromLane="0" toLane="1" via=":J1_35_0" dir="l" state="m"/>
    <connection from=":J1_35" to="E1" fromLane="0" toLane="1" dir="l" state="M"/>
    <connection from=":J1_19" to="E3" fromLane="0" toLane="2" via=":J1_36_0" dir="r" state="m"/>
    <connection from=":J1_36" to="E3" fromLane="0" toLane="2" dir="r" state="M"/>
    <connection from=":J1_20" to="E2" fromLane="0" toLane="2" dir="s" state="M"/>
    <connection from=":J1_21" to="E1" fromLane="0" toLane="2" via=":J1_37_0" dir="l" state="m"/>
    <connection from=":J1_37" to="E1" fromLane="0" toLane="2" dir="l" state="M"/>
    <connection from=":J1_22" to="-E0" fromLane="0" toLane="1" dir="r" state="M"/>
    <connection from=":J1_23" to="E3" fromLane="0" toLane="1" dir="s" state="M"/>
    <connection from=":J1_24" to="E2" fromLane="0" toLane="1" via=":J1_38_0" dir="l" state="m"/>
    <connection from=":J1_38" to="E2" fromLane="0" toLane="1" dir="l" state="M"/>
    <connection from=":J1_25" to="-E0" fromLane="0" toLane="2" via=":J1_39_0" dir="r" state="m"/>
    <connection from=":J1_39" to="-E0" fromLane="0" toLane="2" dir="r" state="M"/>
    <connection from=":J1_26" to="E3" fromLane="0" toLane="2" dir="s" state="M"/>
    <connection from=":J1_27" to="E2" fromLane="0" toLane="2" via=":J1_40_0" dir="l" state="m"/>
    <connection from=":J1_40" to="E2" fromLane="0" toLane="2" dir="l" state="M"/>
    <connection from=":J4_0" to="-E3" fromLane="0" toLane="2" dir="t" state="M"/>

</net>
