<additional>
   <rerouter id="1">
	   <interval begin="300" end="3600">
		  <closingLaneReroute id="E0_0"/>
	   </interval>
	</rerouter>
</additional>