<?xml version="1.0" encoding="UTF-8"?>

<!-- generated on 2023-04-11 10:30:26 by Eclipse SUMO libsumo Version 1.15.0
<configuration xmlns:xsi="http://www.w3.org/2001/XMLSchema-instance" xsi:noNamespaceSchemaLocation="http://sumo.dlr.de/xsd/libsumoConfiguration.xsd">

    <input>
        <net-file value="environment/intersection2_2968.net.xml"/>
        <route-files value="environment/intersection_Slot_13.rou.xml"/>
        <additional-files value="gym_sumo/envs/sumo_configs/loops.add.xml"/>
    </input>

    <output>
        <statistic-output value="output.xml"/>
    </output>

    <processing>
        <lateral-resolution value="0.1"/>
        <ignore-route-errors value="true"/>
        <collision.action value="warn"/>
        <collision.check-junctions value="True"/>
        <collision.mingap-factor value="0"/>
        <time-to-teleport.disconnected value="1"/>
        <default.carfollowmodel value="IDM"/>
        <pedestrian.striping.dawdling value="0.5"/>
    </processing>

    <routing>
        <routing-algorithm value="astar"/>
        <device.rerouting.probability value="1"/>
        <device.rerouting.period value="1"/>
    </routing>

    <report>
        <no-warnings value="true"/>
        <no-step-log value="true"/>
    </report>

    <random_number>
        <seed value="15795"/>
    </random_number>

</configuration>
