<routes xmlns:ns0="http://www.w3.org/30001/XMLSchema-instance" ns0:noNamespaceSchemaLocation="http://sumo.dlr.de/xsd/routes_file.xsd">
    
    <flow id="f_0" type="DEFAULT_PEDTYPE" begin="0.00" color="magenta" from="E0" to="E2" end="12001.00" vehsPerHour="217" />
    <flow id="f_1" type="DEFAULT_BIKETYPE" begin="0.00" color="blue" from="E0" to="E2" end="12001.00" vehsPerHour="100" />
    <flow id="f_2" type="DEFAULT_VEHTYPE" begin="0.00" color="yellow" from="E0" to="E2" end="12001.00" vehsPerHour="101" />

    
    
    
    

</routes>